6rvl_KKE_ligand
     RDKit          3D

 35 37  0  0  0  0  0  0  0  0999 V2000
   -6.7010    3.4770   16.1480 C   0  0  0  0  0  0  0  0  0  0  0  0
   -6.0490    4.4590   15.4270 C   0  0  0  0  0  0  0  0  0  0  0  0
   -4.9070    4.1460   14.7010 C   0  0  0  0  0  0  0  0  0  0  0  0
   -4.4380    2.8300   14.7040 C   0  0  0  0  0  0  0  0  0  0  0  0
   -5.0820    1.8150   15.4360 C   0  0  0  0  0  0  0  0  0  0  0  0
   -6.2230    2.1690   16.1580 C   0  0  0  0  0  0  0  0  0  0  0  0
   -6.7300    0.9830   16.9150 C   0  0  1  0  0  0  0  0  0  0  0  0
   -3.5390    0.0830   16.5670 O   0  0  0  0  0  0  0  0  0  0  0  0
   -0.2740    7.9390   12.7120 C   0  0  0  0  0  0  0  0  0  0  0  0
   -1.4510    7.3970   12.2210 C   0  0  0  0  0  0  0  0  0  0  0  0
   -0.1760    8.3200   14.0360 C   0  0  0  0  0  0  0  0  0  0  0  0
   -1.2560    8.1570   14.8800 C   0  0  0  0  0  0  0  0  0  0  0  0
   -2.4350    7.6130   14.4010 C   0  0  0  0  0  0  0  0  0  0  0  0
   -2.5430    7.2380   13.0650 C   0  0  0  0  0  0  0  0  0  0  0  0
   -6.1870    5.7270   12.3180 S   0  0  0  0  0  0  0  0  0  0  0  0
   -4.2230    5.1840   14.0220 N   0  0  0  0  0  0  0  0  0  0  0  0
   -3.8030    6.8600   12.5490 N   0  0  0  0  0  0  0  0  0  0  0  0
   -4.6550    5.9090   12.9720 C   0  0  0  0  0  0  0  0  0  0  0  0
   -4.7320    0.2590   15.7310 B   0  0  1  0  0  0  0  0  0  0  0  0
   -5.9400   -0.1230   16.5040 O   0  0  0  0  0  0  0  0  0  0  0  0
   -4.6640   -0.6420   14.5780 O   0  0  0  0  0  0  0  0  0  0  0  0
   -7.5900    3.7260   16.7100 H   0  0  0  0  0  0  0  0  0  0  0  0
   -6.4280    5.4710   15.4260 H   0  0  0  0  0  0  0  0  0  0  0  0
   -3.5570    2.5860   14.1300 H   0  0  0  0  0  0  0  0  0  0  0  0
   -6.6220    1.1470   17.9870 H   0  0  0  0  0  0  0  0  0  0  0  0
   -7.7770    0.8040   16.6690 H   0  0  0  0  0  0  0  0  0  0  0  0
    0.5740    8.0640   12.0540 H   0  0  0  0  0  0  0  0  0  0  0  0
   -1.5190    7.0990   11.1860 H   0  0  0  0  0  0  0  0  0  0  0  0
    0.7430    8.7460   14.4100 H   0  0  0  0  0  0  0  0  0  0  0  0
   -1.1810    8.4540   15.9160 H   0  0  0  0  0  0  0  0  0  0  0  0
   -3.2760    7.4800   15.0660 H   0  0  0  0  0  0  0  0  0  0  0  0
   -3.3000    5.4080   14.3660 H   0  0  0  0  0  0  0  0  0  0  0  0
   -4.1090    7.3820   11.7410 H   0  0  0  0  0  0  0  0  0  0  0  0
   -3.6890   -0.6300   17.1930 H   0  0  0  0  0  0  0  0  0  0  0  0
   -4.6330   -0.1250   13.7690 H   0  0  0  0  0  0  0  0  0  0  0  0
 19  5  1  0
 19  8  1  1
 19 20  1  0
 19 21  1  0
  5  4  1  0
  5  6  2  0
 10  9  2  0
 10 14  1  0
 10 28  1  0
  9 11  1  0
  9 27  1  0
 11 12  2  0
 11 29  1  0
 12 13  1  0
 12 30  1  0
 13 14  2  0
 13 31  1  0
  4  3  2  0
  4 24  1  0
  3  2  1  0
  3 16  1  0
  2  1  2  0
  2 23  1  0
  1  6  1  0
  1 22  1  0
  6  7  1  0
  7 20  1  0
  7 25  1  1
  7 26  1  0
 18 15  2  0
 18 16  1  0
 18 17  1  0
 14 17  1  0
 32 16  1  0
 33 17  1  0
 34  8  1  0
 35 21  1  0
M  CHG  1  19  -1
M  END
