7klk_XFP_ligand
     RDKit          3D

 35 35  0  0  0  0  0  0  0  0999 V2000
  -19.9770   15.4920  -10.4450 O   0  0  0  0  0  0  0  0  0  0  0  0
  -20.0110   15.9490  -11.5770 C   0  0  0  0  0  0  0  0  0  0  0  0
  -19.2400   15.5570  -12.5730 O   0  0  0  0  0  0  0  0  0  0  0  0
  -21.0090   17.0960  -11.9510 C   0  0  2  0  0  0  0  0  0  0  0  0
  -22.4710   16.8180  -11.5480 C   0  0  1  0  0  0  0  0  0  0  0  0
  -23.3000   18.0540  -11.8890 C   0  0  1  0  0  0  0  0  0  0  0  0
  -23.2350   18.3900  -13.3760 C   0  0  1  0  0  0  0  0  0  0  0  0
  -21.8100   18.6200  -13.8190 C   0  0  1  0  0  0  0  0  0  0  0  0
  -20.9450   17.4620  -13.4230 N   0  0  1  0  0  0  0  0  0  0  0  0
  -22.8870   15.4300  -12.0490 C   0  0  1  0  0  0  0  0  0  0  0  0
  -24.3750   15.1310  -11.9760 C   0  0  2  0  0  0  0  0  0  0  0  0
  -24.7170   13.6490  -12.1190 C   0  0  1  0  0  0  0  0  0  0  0  0
  -26.1990   13.1890  -12.3440 B   0  0  2  0  0  0  0  0  0  0  0  0
  -27.1510   13.5870  -11.3330 O   0  0  0  0  0  0  0  0  0  0  0  0
  -26.4750   11.7180  -12.4020 O   0  0  0  0  0  0  0  0  0  0  0  0
  -26.7430   13.7900  -13.5780 O   0  0  0  0  0  0  0  0  0  0  0  0
  -20.6940   17.9790  -11.3960 H   0  0  0  0  0  0  0  0  0  0  0  0
  -22.4710   16.7520  -10.4590 H   0  0  0  0  0  0  0  0  0  0  0  0
  -24.3380   17.8680  -11.6150 H   0  0  0  0  0  0  0  0  0  0  0  0
  -22.9270   18.9030  -11.3150 H   0  0  0  0  0  0  0  0  0  0  0  0
  -23.6560   17.5630  -13.9470 H   0  0  0  0  0  0  0  0  0  0  0  0
  -23.8180   19.2910  -13.5670 H   0  0  0  0  0  0  0  0  0  0  0  0
  -21.7850   18.7320  -14.9030 H   0  0  0  0  0  0  0  0  0  0  0  0
  -21.4310   19.5290  -13.3540 H   0  0  0  0  0  0  0  0  0  0  0  0
  -19.9890   17.6920  -13.6480 H   0  0  0  0  0  0  0  0  0  0  0  0
  -21.2180   16.6550  -13.9670 H   0  0  0  0  0  0  0  0  0  0  0  0
  -22.5760   15.3410  -13.0900 H   0  0  0  0  0  0  0  0  0  0  0  0
  -22.3560   14.6790  -11.4650 H   0  0  0  0  0  0  0  0  0  0  0  0
  -24.8740   15.6760  -12.7770 H   0  0  0  0  0  0  0  0  0  0  0  0
  -24.7570   15.4880  -11.0200 H   0  0  0  0  0  0  0  0  0  0  0  0
  -24.1430   13.2760  -12.9670 H   0  0  0  0  0  0  0  0  0  0  0  0
  -24.3490   13.1410  -11.2270 H   0  0  0  0  0  0  0  0  0  0  0  0
  -26.0290   14.1790  -14.0880 H   0  0  0  0  0  0  0  0  0  0  0  0
  -26.9850   11.4580  -11.6320 H   0  0  0  0  0  0  0  0  0  0  0  0
  -26.7290   14.1870  -10.7140 H   0  0  0  0  0  0  0  0  0  0  0  0
 13 12  1  0
 13 14  1  1
 13 15  1  0
 13 16  1  0
  4  2  1  0
  4  5  1  0
  4  9  1  0
  4 17  1  1
  5  6  1  0
  5 10  1  0
  5 18  1  1
  6  7  1  0
  6 19  1  1
  6 20  1  0
  7  8  1  0
  7 21  1  6
  7 22  1  0
  8  9  1  0
  8 23  1  6
  8 24  1  0
 10 11  1  0
 10 27  1  6
 10 28  1  0
 11 12  1  0
 11 29  1  6
 11 30  1  0
 12 31  1  6
 12 32  1  0
  2  1  2  0
  2  3  1  0
  9 25  1  6
 26  9  1  0
 33 16  1  0
 34 15  1  0
 35 14  1  0
M  CHG  3   3  -1   9   1  13  -1
M  END
