5g6v_ligand2
     RDKit          3D

 69 73  0  0  0  0  0  0  0  0999 V2000
  -16.1810  -16.1670   11.5730 C   0  0  0  0  0  0  0  0  0  0  0  0
  -16.8970  -15.2760   10.7870 C   0  0  0  0  0  0  0  0  0  0  0  0
  -18.2450  -15.4040   10.6470 C   0  0  0  0  0  0  0  0  0  0  0  0
  -18.9280  -16.4370   11.3120 C   0  0  0  0  0  0  0  0  0  0  0  0
  -18.1930  -17.3440   12.1200 C   0  0  0  0  0  0  0  0  0  0  0  0
  -16.7900  -17.1750   12.2260 C   0  0  0  0  0  0  0  0  0  0  0  0
  -20.9310  -17.5150   11.8200 C   0  0  0  0  0  0  0  0  0  0  0  0
  -20.2930  -16.5510   11.1660 N   0  0  0  0  0  0  0  0  0  0  0  0
  -18.9160  -18.3640   12.7780 C   0  0  0  0  0  0  0  0  0  0  0  0
  -20.2730  -18.4370   12.6370 C   0  0  0  0  0  0  0  0  0  0  0  0
   -7.3290  -25.2500   12.5470 C   0  0  0  0  0  0  0  0  0  0  0  0
   -6.9920  -25.8710   13.6910 N   0  0  0  0  0  0  0  0  0  0  0  0
   -7.9660  -26.2960   14.5040 C   0  0  0  0  0  0  0  0  0  0  0  0
   -9.3060  -26.1080   14.2080 C   0  0  0  0  0  0  0  0  0  0  0  0
   -9.6370  -25.4660   13.0250 C   0  0  0  0  0  0  0  0  0  0  0  0
   -8.6280  -25.0250   12.1800 C   0  0  0  0  0  0  0  0  0  0  0  0
  -11.4970  -21.7030   12.3790 C   0  0  0  0  0  0  0  0  0  0  0  0
  -10.8970  -22.9020   12.7040 C   0  0  0  0  0  0  0  0  0  0  0  0
  -11.5510  -24.0890   12.4660 C   0  0  0  0  0  0  0  0  0  0  0  0
  -12.8130  -24.0910   11.8820 C   0  0  0  0  0  0  0  0  0  0  0  0
  -13.3860  -22.8910   11.5590 C   0  0  0  0  0  0  0  0  0  0  0  0
  -12.7510  -21.6740   11.7860 C   0  0  0  0  0  0  0  0  0  0  0  0
  -12.9450  -14.8750   12.0190 C   0  0  0  0  0  0  0  0  0  0  0  0
  -12.6200  -16.1940   11.7980 C   0  0  0  0  0  0  0  0  0  0  0  0
  -13.7630  -16.8880   11.6130 C   0  0  0  0  0  0  0  0  0  0  0  0
  -14.7730  -15.9870   11.6970 N   0  0  0  0  0  0  0  0  0  0  0  0
  -14.2630  -14.7280   11.9570 N   0  0  0  0  0  0  0  0  0  0  0  0
  -13.9380  -18.2510   11.3700 N   0  0  0  0  0  0  0  0  0  0  0  0
  -13.1180  -19.2250   11.8480 C   0  0  0  0  0  0  0  0  0  0  0  0
  -13.4140  -20.4880   11.4250 N   0  0  0  0  0  0  0  0  0  0  0  0
  -12.1830  -18.9490   12.5870 O   0  0  0  0  0  0  0  0  0  0  0  0
  -10.9980  -25.3210   12.7890 O   0  0  0  0  0  0  0  0  0  0  0  0
   -7.5740  -26.9690   15.7880 C   0  0  0  0  0  0  0  0  0  0  0  0
   -8.4150  -27.2060   16.6560 O   0  0  0  0  0  0  0  0  0  0  0  0
   -6.2790  -27.2760   15.9240 N   0  0  0  0  0  0  0  0  0  0  0  0
   -5.7340  -27.8080   17.1670 C   0  0  2  0  0  0  0  0  0  0  0  0
  -12.0350  -13.6940   12.2720 C   0  0  1  0  0  0  0  0  0  0  0  0
  -12.8250  -12.5360   12.8910 C   0  0  2  0  0  0  0  0  0  0  0  0
  -10.9220  -14.1000   13.2280 C   0  0  2  0  0  0  0  0  0  0  0  0
  -11.4300  -13.2400   10.9670 C   0  0  2  0  0  0  0  0  0  0  0  0
  -14.6120  -22.8770   10.9930 F   0  0  0  0  0  0  0  0  0  0  0  0
  -16.3810  -14.4730   10.2820 H   0  0  0  0  0  0  0  0  0  0  0  0
  -18.7920  -14.7110   10.0240 H   0  0  0  0  0  0  0  0  0  0  0  0
  -16.2090  -17.8560   12.8310 H   0  0  0  0  0  0  0  0  0  0  0  0
  -22.0040  -17.5900   11.7160 H   0  0  0  0  0  0  0  0  0  0  0  0
  -18.3970  -19.0850   13.3930 H   0  0  0  0  0  0  0  0  0  0  0  0
  -20.8330  -19.2020   13.1530 H   0  0  0  0  0  0  0  0  0  0  0  0
   -6.5400  -24.9140   11.8890 H   0  0  0  0  0  0  0  0  0  0  0  0
  -10.0750  -26.4530   14.8830 H   0  0  0  0  0  0  0  0  0  0  0  0
   -8.8620  -24.5170   11.2560 H   0  0  0  0  0  0  0  0  0  0  0  0
  -10.9850  -20.7760   12.5890 H   0  0  0  0  0  0  0  0  0  0  0  0
   -9.9120  -22.9090   13.1470 H   0  0  0  0  0  0  0  0  0  0  0  0
  -13.3290  -25.0190   11.6880 H   0  0  0  0  0  0  0  0  0  0  0  0
  -11.6210  -16.6040   11.7760 H   0  0  0  0  0  0  0  0  0  0  0  0
  -14.7230  -18.5330   10.8010 H   0  0  0  0  0  0  0  0  0  0  0  0
  -14.1910  -20.5800   10.7860 H   0  0  0  0  0  0  0  0  0  0  0  0
   -5.6580  -27.1340   15.1400 H   0  0  0  0  0  0  0  0  0  0  0  0
   -6.3560  -28.6340   17.5130 H   0  0  0  0  0  0  0  0  0  0  0  0
   -5.7200  -27.0230   17.9240 H   0  0  0  0  0  0  0  0  0  0  0  0
   -4.7190  -28.1650   16.9950 H   0  0  0  0  0  0  0  0  0  0  0  0
  -13.2650  -12.8590   13.8350 H   0  0  0  0  0  0  0  0  0  0  0  0
  -13.6170  -12.2300   12.2070 H   0  0  0  0  0  0  0  0  0  0  0  0
  -12.1550  -11.6940   13.0710 H   0  0  0  0  0  0  0  0  0  0  0  0
  -11.3550  -14.4300   14.1720 H   0  0  0  0  0  0  0  0  0  0  0  0
  -10.2670  -13.2470   13.4060 H   0  0  0  0  0  0  0  0  0  0  0  0
  -10.3460  -14.9160   12.7890 H   0  0  0  0  0  0  0  0  0  0  0  0
  -12.2230  -12.9480   10.2800 H   0  0  0  0  0  0  0  0  0  0  0  0
  -10.8540  -14.0550   10.5310 H   0  0  0  0  0  0  0  0  0  0  0  0
  -10.7740  -12.3880   11.1480 H   0  0  0  0  0  0  0  0  0  0  0  0
  1  2  2  0
  1  6  1  0
  1 26  1  0
  2  3  1  0
  2 42  1  0
  3  4  2  0
  3 43  1  0
  4  5  1  0
  4  8  1  0
  5  6  2  0
  5  9  1  0
  6 44  1  0
  7  8  2  0
  7 10  1  0
  7 45  1  0
  9 10  2  0
  9 46  1  0
 10 47  1  0
 11 12  2  0
 11 16  1  0
 11 48  1  0
 12 13  1  0
 13 14  2  0
 13 33  1  0
 14 15  1  0
 14 49  1  0
 15 16  2  0
 15 32  1  0
 16 50  1  0
 17 18  2  0
 17 22  1  0
 17 51  1  0
 18 19  1  0
 18 52  1  0
 19 20  2  0
 19 32  1  0
 20 21  1  0
 20 53  1  0
 21 22  2  0
 21 41  1  0
 22 30  1  0
 23 24  1  0
 23 27  2  0
 37 23  1  6
 24 25  2  0
 24 54  1  0
 25 26  1  0
 25 28  1  0
 26 27  1  0
 28 29  1  0
 28 55  1  0
 29 30  1  0
 29 31  2  0
 30 56  1  0
 33 34  2  0
 33 35  1  0
 35 36  1  0
 35 57  1  0
 36 58  1  1
 36 59  1  0
 36 60  1  0
 37 38  1  0
 37 39  1  0
 37 40  1  0
 38 61  1  1
 38 62  1  0
 38 63  1  0
 39 64  1  1
 39 65  1  0
 39 66  1  0
 40 67  1  6
 40 68  1  0
 40 69  1  0
M  END
