8aup_O93_ligand
     RDKit          3D

 47 47  0  0  0  0  0  0  0  0999 V2000
  -26.3040   13.1980  -12.3200 B   0  0  1  0  0  0  0  0  0  0  0  0
  -21.4470   16.9470  -12.4180 C   0  0  1  0  0  0  0  0  0  0  0  0
  -20.3210   15.9720  -12.0390 C   0  0  0  0  0  0  0  0  0  0  0  0
  -22.8000   16.2090  -12.6050 C   0  0  2  0  0  0  0  0  0  0  0  0
  -23.3930   15.7540  -11.2900 C   0  0  2  0  0  0  0  0  0  0  0  0
  -24.8040   15.1910  -11.5590 C   0  0  2  0  0  0  0  0  0  0  0  0
  -24.7660   13.6960  -11.8810 C   0  0  1  0  0  0  0  0  0  0  0  0
  -23.5110   16.8770  -10.2720 C   0  0  1  0  0  0  0  0  0  0  0  0
  -22.2180   17.6780  -10.1010 C   0  0  1  0  0  0  0  0  0  0  0  0
  -21.5920   18.1070  -11.4160 C   0  0  1  0  0  0  0  0  0  0  0  0
  -20.2080   18.7290  -11.1350 C   0  0  1  0  0  0  0  0  0  0  0  0
  -20.7920   20.8680  -10.2920 C   0  0  1  0  0  0  0  0  0  0  0  0
  -18.8290   20.6330  -11.5040 C   0  0  2  0  0  0  0  0  0  0  0  0
  -20.9220   17.3890  -13.6720 N   0  0  2  0  0  0  0  0  0  0  0  0
  -20.2010   20.1790  -11.3840 N   0  0  1  0  0  0  0  0  0  0  0  0
  -20.1560   15.6220  -10.8450 O   0  0  0  0  0  0  0  0  0  0  0  0
  -19.5670   15.5210  -12.9290 O   0  0  0  0  0  0  0  0  0  0  0  0
  -26.8150   14.0550  -13.6790 O   0  0  0  0  0  0  0  0  0  0  0  0
  -26.2710   11.5570  -12.6730 O   0  0  0  0  0  0  0  0  0  0  0  0
  -27.3760   13.4730  -11.0410 O   0  0  0  0  0  0  0  0  0  0  0  0
  -22.6390   15.3360  -13.2370 H   0  0  0  0  0  0  0  0  0  0  0  0
  -23.5050   16.8780  -13.0990 H   0  0  0  0  0  0  0  0  0  0  0  0
  -22.7690   14.9630  -10.8750 H   0  0  0  0  0  0  0  0  0  0  0  0
  -25.2410   15.7220  -12.4040 H   0  0  0  0  0  0  0  0  0  0  0  0
  -25.4260   15.3500  -10.6790 H   0  0  0  0  0  0  0  0  0  0  0  0
  -24.4390   13.1410  -11.0020 H   0  0  0  0  0  0  0  0  0  0  0  0
  -24.0750   13.5170  -12.7040 H   0  0  0  0  0  0  0  0  0  0  0  0
  -24.2980   17.5570  -10.5970 H   0  0  0  0  0  0  0  0  0  0  0  0
  -23.7900   16.4500   -9.3090 H   0  0  0  0  0  0  0  0  0  0  0  0
  -22.4410   18.5710   -9.5170 H   0  0  0  0  0  0  0  0  0  0  0  0
  -21.4990   17.0710   -9.5510 H   0  0  0  0  0  0  0  0  0  0  0  0
  -22.2260   18.8720  -11.8650 H   0  0  0  0  0  0  0  0  0  0  0  0
  -19.9450   18.5490  -10.0930 H   0  0  0  0  0  0  0  0  0  0  0  0
  -19.4670   18.2540  -11.7780 H   0  0  0  0  0  0  0  0  0  0  0  0
  -20.7070   20.3840  -12.2350 H   0  0  0  0  0  0  0  0  0  0  0  0
  -20.0430   17.8620  -13.5220 H   0  0  0  0  0  0  0  0  0  0  0  0
  -21.5760   18.0250  -14.1050 H   0  0  0  0  0  0  0  0  0  0  0  0
  -20.7770   16.5920  -14.2760 H   0  0  0  0  0  0  0  0  0  0  0  0
  -26.2330   14.8030  -13.8220 H   0  0  0  0  0  0  0  0  0  0  0  0
  -25.3630   11.2780  -12.8160 H   0  0  0  0  0  0  0  0  0  0  0  0
  -18.3480   20.1200  -12.3360 H   0  0  0  0  0  0  0  0  0  0  0  0
  -18.2920   20.4100  -10.5810 H   0  0  0  0  0  0  0  0  0  0  0  0
  -18.8160   21.7080  -11.6820 H   0  0  0  0  0  0  0  0  0  0  0  0
  -21.8270   20.5480  -10.1760 H   0  0  0  0  0  0  0  0  0  0  0  0
  -20.2380   20.6440   -9.3800 H   0  0  0  0  0  0  0  0  0  0  0  0
  -20.7620   21.9410  -10.4810 H   0  0  0  0  0  0  0  0  0  0  0  0
  -27.0570   13.0280  -10.2530 H   0  0  0  0  0  0  0  0  0  0  0  0
  1  7  1  0
  1 18  1  6
  1 19  1  0
  1 20  1  0
  2  3  1  1
  2  4  1  0
  2 10  1  0
  2 14  1  0
  3 16  1  0
  3 17  2  0
  4  5  1  0
  4 21  1  6
  4 22  1  0
  5  6  1  0
  5  8  1  0
  5 23  1  1
  6  7  1  0
  6 24  1  6
  6 25  1  0
  7 26  1  1
  7 27  1  0
  8  9  1  0
  8 28  1  6
  8 29  1  0
  9 10  1  0
  9 30  1  1
  9 31  1  0
 10 11  1  0
 10 32  1  6
 11 15  1  0
 11 33  1  1
 11 34  1  0
 12 15  1  0
 12 44  1  1
 12 45  1  0
 12 46  1  0
 13 15  1  0
 13 41  1  6
 13 42  1  0
 13 43  1  0
 14 36  1  1
 37 14  1  0
 38 14  1  0
 39 18  1  0
 40 19  1  0
 47 20  1  0
 15 35  1  6
M  CHG  4   1  -1  14   1  15   1  16  -1
M  END
