6q30
     RDKit          3D

 25 26  0  0  0  0  0  0  0  0999 V2000
   -8.5850    1.4740  -17.6650 C   0  0  0  0  0  3  0  0  0  0  0  0
   -9.5800    1.8570  -18.6970 C   0  0  0  0  0  0  0  0  0  0  0  0
  -10.2230    2.9210  -18.5730 O   0  0  0  0  0  0  0  0  0  0  0  0
   -9.6390    1.1260  -19.7150 O   0  0  0  0  0  1  0  0  0  0  0  0
   -8.6150    2.2460  -16.3510 C   0  0  0  0  0  3  0  0  0  0  0  0
   -9.6190    3.3750  -15.6920 S   0  0  0  0  0  0  0  0  0  0  0  0
   -8.9040    3.4880  -14.2340 C   0  0  0  0  0  3  0  0  0  0  0  0
   -9.2280    4.5390  -13.0250 B   0  0  0  0  0  4  0  0  0  0  0  0
   -8.6650    6.0200  -13.4580 O   0  0  0  0  0  0  0  0  0  0  0  0
  -10.7680    4.8820  -12.8030 O   0  0  0  0  0  1  0  0  0  0  0  0
   -8.7160    3.8780  -11.5910 O   0  0  0  0  0  0  0  0  0  0  0  0
   -7.7750    2.6150  -14.0540 C   0  0  0  0  0  3  0  0  0  0  0  0
   -7.6050    1.8020  -15.3570 C   0  0  0  0  0  3  0  0  0  0  0  0
   -6.5530    0.7240  -15.5930 C   0  0  0  0  0  0  0  0  0  0  0  0
   -6.5360    0.0350  -16.9330 C   0  0  0  0  0  0  0  0  0  0  0  0
   -7.5630    0.4110  -17.9460 C   0  0  0  0  0  0  0  0  0  0  0  0
   -7.1590    2.5410  -13.1690 H   0  0  0  0  0  0  0  0  0  0  0  0
   -5.5770    1.1890  -15.4550 H   0  0  0  0  0  0  0  0  0  0  0  0
   -6.6740   -0.0390  -14.8240 H   0  0  0  0  0  0  0  0  0  0  0  0
   -5.5600    0.2260  -17.3790 H   0  0  0  0  0  0  0  0  0  0  0  0
   -6.6180   -1.0380  -16.7570 H   0  0  0  0  0  0  0  0  0  0  0  0
   -8.1180   -0.4980  -18.1740 H   0  0  0  0  0  0  0  0  0  0  0  0
   -7.0330    0.7030  -18.8520 H   0  0  0  0  0  0  0  0  0  0  0  0
   -8.2390    4.5410  -11.0850 H   0  0  0  0  0  0  0  0  0  0  0  0
   -8.4480    6.0190  -14.3940 H   0  0  0  0  0  0  0  0  0  0  0  0
  7  8  1  6
  8  9  1  0
  8 10  1  0
  8 11  1  0
  1  2  1  6
  1  5  1  0
  1 16  1  0
  2  3  2  0
  2  4  1  0
  5  6  1  1
  5 13  1  0
  7  6  1  0
  7 12  1  0
 12 13  1  0
 12 17  1  0
 13 14  1  0
 14 15  1  0
 14 18  1  0
 14 19  1  0
 15 16  1  0
 15 20  1  0
 15 21  1  0
 16 22  1  0
 16 23  1  0
 25  9  1  0
 24 11  1  0
M  CHG  8   1  -1   4  -1   5  -1   7  -1   8  -1  10  -1  12  -1  13  -1
M  END
