6q30_HCH_ligand
     RDKit          3D

 22 23  0  0  0  0  0  0  0  0999 V2000
   -8.5500    1.4860  -17.6850 C   0  0  0  0  0  0  0  0  0  0  0  0
   -9.5410    1.8750  -18.7190 C   0  0  0  0  0  0  0  0  0  0  0  0
  -10.1660    2.9510  -18.6040 O   0  0  0  0  0  0  0  0  0  0  0  0
   -9.6150    1.1350  -19.7290 O   0  0  0  0  0  0  0  0  0  0  0  0
   -8.5640    2.2730  -16.3790 C   0  0  0  0  0  0  0  0  0  0  0  0
   -9.5470    3.4250  -15.7300 S   0  0  0  0  0  0  0  0  0  0  0  0
   -8.8270    3.5410  -14.2750 C   0  0  0  0  0  0  0  0  0  0  0  0
   -8.5430    6.0770  -13.5260 O   0  0  0  0  0  0  0  0  0  0  0  0
  -10.6630    4.9820  -12.8540 O   0  0  0  0  0  0  0  0  0  0  0  0
   -8.6260    3.9560  -11.6360 O   0  0  0  0  0  0  0  0  0  0  0  0
   -7.7120    2.6510  -14.0880 C   0  0  0  0  0  0  0  0  0  0  0  0
   -7.5590    1.8220  -15.3830 C   0  0  0  0  0  0  0  0  0  0  0  0
   -6.5260    0.7240  -15.6100 C   0  0  0  0  0  0  0  0  0  0  0  0
   -6.5240    0.0210  -16.9420 C   0  0  0  0  0  0  0  0  0  0  0  0
   -7.5470    0.4030  -17.9570 C   0  0  0  0  0  0  0  0  0  0  0  0
   -9.1300    4.6100  -13.0760 B   0  0  1  0  0  0  0  0  0  0  0  0
   -5.8110    0.4560  -14.8320 H   0  0  0  0  0  0  0  0  0  0  0  0
   -5.7880   -0.7530  -17.1610 H   0  0  0  0  0  0  0  0  0  0  0  0
   -7.5670   -0.1140  -18.9160 H   0  0  0  0  0  0  0  0  0  0  0  0
   -8.3290    6.0630  -14.4620 H   0  0  0  0  0  0  0  0  0  0  0  0
   -8.1360    4.6160  -11.1380 H   0  0  0  0  0  0  0  0  0  0  0  0
   -7.0950    2.5760  -13.2040 H   0  0  0  0  0  0  0  0  0  0  0  0
  1  2  1  0
  1  5  2  0
  1 15  1  0
  2  3  1  0
  2  4  2  0
  5  6  1  0
  5 12  1  0
  6  7  1  0
  7 11  2  0
  7 16  1  0
  8 20  1  0
  8 16  1  0
 16  9  1  1
 10 21  1  0
 10 16  1  0
 11 12  1  0
 11 22  1  0
 12 13  2  0
 13 14  1  0
 13 17  1  0
 14 15  2  0
 14 18  1  0
 15 19  1  0
M  CHG  3   3  -1   9  -1  16  -1
M  END
