6v1m
     RDKit          3D

 25 27  0  0  0  0  0  0  0  0999 V2000
   -6.7250    4.6790  -10.3890 C   0  0  0  0  0  0  0  0  0  0  0  0
   -7.1880    2.9170  -13.7790 C   0  0  0  0  0  0  0  0  0  0  0  0
   -7.5180    3.6430  -12.5760 C   0  0  0  0  0  0  0  0  0  0  0  0
   -9.7060    2.1220  -14.6810 C   0  0  0  0  0  0  0  0  0  0  0  0
   -8.2650    2.7130  -14.7000 C   0  0  1  0  0  0  0  0  0  0  0  0
   -7.8460    4.6780   -9.7850 O   0  0  0  0  0  0  0  0  0  0  0  0
  -10.8350    4.9800  -12.8710 O   0  0  0  0  0  0  0  0  0  0  0  0
   -9.5380    4.7640  -13.4990 B   0  0  0  0  0  4  0  0  0  0  0  0
   -6.4770    3.8500  -11.6230 C   0  0  0  0  0  0  0  0  0  0  0  0
   -5.2010    3.3500  -11.9040 C   0  0  0  0  0  0  0  0  0  0  0  0
   -4.8590    2.6180  -13.0580 C   0  0  0  0  0  0  0  0  0  0  0  0
   -5.8880    2.4050  -13.9990 C   0  0  0  0  0  0  0  0  0  0  0  0
   -9.5190    3.6430  -14.5730 C   0  0  2  0  0  0  0  0  0  0  0  0
   -4.1890    3.5610  -10.9600 F   0  0  0  0  0  0  0  0  0  0  0  0
   -5.8290    5.5070  -10.0050 O   0  0  0  0  0  1  0  0  0  0  0  0
   -8.6900    4.0680  -12.3570 O   0  0  0  0  0  0  0  0  0  0  0  0
   -8.8970    5.9900  -13.8430 O   0  0  0  0  0  0  0  0  0  0  0  0
  -10.0480    1.5540  -13.8160 H   0  0  0  0  0  0  0  0  0  0  0  0
  -10.0750    1.7670  -15.6440 H   0  0  0  0  0  0  0  0  0  0  0  0
   -7.8870    2.7370  -15.7230 H   0  0  0  0  0  0  0  0  0  0  0  0
   -3.8590    2.2400  -13.2150 H   0  0  0  0  0  0  0  0  0  0  0  0
   -5.6820    1.8440  -14.8980 H   0  0  0  0  0  0  0  0  0  0  0  0
   -9.7230    4.0900  -15.5460 H   0  0  0  0  0  0  0  0  0  0  0  0
   -8.0340    6.0280  -13.4240 H   0  0  0  0  0  0  0  0  0  0  0  0
  -11.5260    4.6290  -13.4370 H   0  0  0  0  0  0  0  0  0  0  0  0
  8  7  1  0
  8 13  1  0
  8 16  1  0
  8 17  1  0
  1  6  2  0
  1  9  1  0
  1 15  1  0
  9  3  2  0
  9 10  1  0
 10 11  2  0
 10 14  1  0
 11 12  1  0
 11 21  1  0
 12  2  2  0
 12 22  1  0
  2  3  1  0
  2  5  1  0
  3 16  1  0
 13  4  1  0
 13  5  1  0
 13 23  1  6
  4  5  1  0
  4 18  1  0
  4 19  1  0
  5 20  1  6
 24 17  1  0
 25  7  1  0
M  CHG  2   8  -1  15  -1
M  END
