6qaf_XC3_ligand
     RDKit          3D

 43 43  0  0  0  0  0  0  0  0999 V2000
  -22.9940   17.4680  -10.9620 C   0  0  1  0  0  0  0  0  0  0  0  0
  -22.1260   18.6570  -10.9480 N   0  0  0  0  0  0  0  0  0  0  0  0
  -20.9060   18.4880  -11.7420 C   0  0  1  0  0  0  0  0  0  0  0  0
  -21.1620   17.2140  -12.5350 C   0  0  1  0  0  0  0  0  0  0  0  0
  -22.6260   16.8400  -12.2920 C   0  0  1  0  0  0  0  0  0  0  0  0
  -22.8460   15.3280  -12.3060 C   0  0  1  0  0  0  0  0  0  0  0  0
  -24.3270   14.9520  -12.1400 C   0  0  0  0  0  0  0  0  0  0  0  0
  -24.6750   13.4720  -12.2120 C   0  0  0  0  0  0  0  0  0  0  0  0
  -26.4430   11.6630  -12.5060 O   0  0  0  0  0  0  0  0  0  0  0  0
  -27.0280   13.7400  -11.3980 O   0  0  0  0  0  0  0  0  0  0  0  0
  -26.6700   13.5730  -13.7730 O   0  0  0  0  0  0  0  0  0  0  0  0
  -20.9960   17.5440  -13.9700 N   0  0  2  0  0  0  0  0  0  0  0  0
  -20.1640   16.1370  -12.1420 C   0  0  0  0  0  0  0  0  0  0  0  0
  -19.4810   15.5680  -13.0680 O   0  0  0  0  0  0  0  0  0  0  0  0
  -20.0240   15.8680  -10.9130 O   0  0  0  0  0  0  0  0  0  0  0  0
  -22.2770   19.6020  -10.0300 C   0  0  0  0  0  0  0  0  0  0  0  0
  -21.0830   19.9530   -9.1740 C   0  0  2  0  0  0  0  0  0  0  0  0
  -21.3320   19.5430   -7.7220 C   0  0  1  0  0  0  0  0  0  0  0  0
  -20.8540   21.4070   -9.2770 N   0  0  1  0  0  0  0  0  0  0  0  0
  -23.3670   20.1540   -9.8890 O   0  0  0  0  0  0  0  0  0  0  0  0
  -26.2010   13.1160  -12.4570 B   0  0  1  0  0  0  0  0  0  0  0  0
  -25.0930   15.7100  -11.9780 H   0  0  0  0  0  0  0  0  0  0  0  0
  -23.9160   12.6980  -12.1010 H   0  0  0  0  0  0  0  0  0  0  0  0
  -23.2370   17.2910  -13.0740 H   0  0  0  0  0  0  0  0  0  0  0  0
  -26.9300   11.3930  -11.7240 H   0  0  0  0  0  0  0  0  0  0  0  0
  -26.4840   14.3300  -10.8720 H   0  0  0  0  0  0  0  0  0  0  0  0
  -22.7680   16.8000  -10.1310 H   0  0  0  0  0  0  0  0  0  0  0  0
  -24.0450   17.7570  -10.9500 H   0  0  0  0  0  0  0  0  0  0  0  0
  -20.2070   19.4250   -9.5490 H   0  0  0  0  0  0  0  0  0  0  0  0
  -20.7580   19.3370  -12.4100 H   0  0  0  0  0  0  0  0  0  0  0  0
  -20.0420   18.3630  -11.0900 H   0  0  0  0  0  0  0  0  0  0  0  0
  -22.4880   14.9310  -13.2560 H   0  0  0  0  0  0  0  0  0  0  0  0
  -22.2730   14.8780  -11.4950 H   0  0  0  0  0  0  0  0  0  0  0  0
  -25.9190   13.8500  -14.3030 H   0  0  0  0  0  0  0  0  0  0  0  0
  -20.1340   18.0540  -14.1020 H   0  0  0  0  0  0  0  0  0  0  0  0
  -21.7730   18.1110  -14.2780 H   0  0  0  0  0  0  0  0  0  0  0  0
  -20.9680   16.6900  -14.5100 H   0  0  0  0  0  0  0  0  0  0  0  0
  -21.4980   18.4680   -7.6710 H   0  0  0  0  0  0  0  0  0  0  0  0
  -20.4630   19.8060   -7.1170 H   0  0  0  0  0  0  0  0  0  0  0  0
  -22.2100   20.0650   -7.3420 H   0  0  0  0  0  0  0  0  0  0  0  0
  -20.6930   21.6550  -10.2430 H   0  0  0  0  0  0  0  0  0  0  0  0
  -21.6660   21.9010   -8.9340 H   0  0  0  0  0  0  0  0  0  0  0  0
  -20.0480   21.6610   -8.7250 H   0  0  0  0  0  0  0  0  0  0  0  0
 21  8  1  0
 21  9  1  6
 21 10  1  0
 21 11  1  0
  1  2  1  0
  1  5  1  0
  1 27  1  1
  1 28  1  0
  4 13  1  1
 13 14  2  0
 13 15  1  0
 16  2  1  0
 16 17  1  0
 16 20  2  0
 17 18  1  0
 17 19  1  0
 17 29  1  6
 18 38  1  6
 18 39  1  0
 18 40  1  0
  3  2  1  0
  3  4  1  0
  3 30  1  6
  3 31  1  0
  4  5  1  0
  4 12  1  0
  5  6  1  0
  5 24  1  6
  6  7  1  0
  6 32  1  6
  6 33  1  0
  7  8  2  3
  7 22  1  0
  8 23  1  0
 25  9  1  0
 26 10  1  0
 34 11  1  0
 12 35  1  1
 36 12  1  0
 37 12  1  0
 19 41  1  6
 42 19  1  0
 43 19  1  0
M  CHG  4  12   1  15  -1  19   1  21  -1
M  END
