3o0j_3OJ_ligand
     RDKit          3D

 30 32  0  0  0  0  0  0  0  0999 V2000
  -43.7030   94.8530  111.8000 C   0  0  0  0  0  0  0  0  0  0  0  0
  -43.9560   94.1650  112.9850 C   0  0  0  0  0  0  0  0  0  0  0  0
  -42.4920   94.7060  111.1380 C   0  0  0  0  0  0  0  0  0  0  0  0
  -42.9780   93.3210  113.5050 C   0  0  0  0  0  0  0  0  0  0  0  0
  -41.5320   93.8660  111.6610 C   0  0  0  0  0  0  0  0  0  0  0  0
  -41.7750   93.1690  112.8340 C   0  0  0  0  0  0  0  0  0  0  0  0
  -45.1700   94.3460  113.6090 O   0  0  0  0  0  0  0  0  0  0  0  0
  -46.6980   92.2730  116.8170 C   0  0  0  0  0  0  0  0  0  0  0  0
  -47.1280   91.9700  115.5680 C   0  0  0  0  0  0  0  0  0  0  0  0
  -45.7630   93.2710  117.0310 C   0  0  0  0  0  0  0  0  0  0  0  0
  -46.6460   92.6440  114.4590 C   0  0  0  0  0  0  0  0  0  0  0  0
  -45.2630   93.9610  115.9370 C   0  0  0  0  0  0  0  0  0  0  0  0
  -45.7010   93.6510  114.6560 C   0  0  0  0  0  0  0  0  0  0  0  0
  -48.1360   90.8680  115.6240 C   0  0  2  0  0  0  0  0  0  0  0  0
  -48.3510   90.6780  117.0470 O   0  0  0  0  0  0  0  0  0  0  0  0
  -47.3620   91.3970  117.8230 B   0  0  0  0  0  0  0  0  0  0  0  0
  -46.3930   90.5160  118.4070 O   0  0  0  0  0  0  0  0  0  0  0  0
  -40.2840   93.6960  110.9930 C   0  0  0  0  0  0  0  0  0  0  0  0
  -40.7470   92.3170  113.3460 C   0  0  0  0  0  0  0  0  0  0  0  0
  -39.2670   93.5640  110.4700 N   0  0  0  0  0  0  0  0  0  0  0  0
  -39.9100   91.6200  113.7330 N   0  0  0  0  0  0  0  0  0  0  0  0
  -44.4580   95.5080  111.3920 H   0  0  0  0  0  0  0  0  0  0  0  0
  -42.3030   95.2450  110.2210 H   0  0  0  0  0  0  0  0  0  0  0  0
  -43.1560   92.7870  114.4270 H   0  0  0  0  0  0  0  0  0  0  0  0
  -45.4290   93.5080  118.0310 H   0  0  0  0  0  0  0  0  0  0  0  0
  -46.9930   92.3960  113.4670 H   0  0  0  0  0  0  0  0  0  0  0  0
  -44.5310   94.7420  116.0820 H   0  0  0  0  0  0  0  0  0  0  0  0
  -47.7460   89.9600  115.1640 H   0  0  0  0  0  0  0  0  0  0  0  0
  -49.0620   91.1740  115.1370 H   0  0  0  0  0  0  0  0  0  0  0  0
  -46.4350   89.6610  117.9730 H   0  0  0  0  0  0  0  0  0  0  0  0
 16  8  1  0
 16 15  1  0
 16 17  1  0
  1  2  2  0
  1  3  1  0
  1 22  1  0
 10  8  2  0
 10 12  1  0
 10 25  1  0
 11  9  2  0
 11 13  1  0
 11 26  1  0
 12 13  2  0
 12 27  1  0
 13  7  1  0
 14  9  1  0
 14 15  1  0
 14 28  1  6
 14 29  1  0
 18  5  1  0
 18 20  3  0
 19  6  1  0
 19 21  3  0
  2  4  1  0
  2  7  1  0
  3  5  2  0
  3 23  1  0
  4  6  2  0
  4 24  1  0
  5  6  1  0
  8  9  1  0
 30 17  1  0
M  END
