4xud_SAM_ligand
     RDKit          3D

 50 52  0  0  0  0  0  0  0  0999 V2000
   -1.9070    1.6920  -15.6950 H   0  0  0  0  0  0  0  0  0  0  0  0
   -0.8120    5.3540  -14.9380 H   0  0  0  0  0  0  0  0  0  0  0  0
   -0.6060    3.0260  -16.9000 H   0  0  0  0  0  0  0  0  0  0  0  0
   -0.6760    4.6410  -18.6520 H   0  0  0  0  0  0  0  0  0  0  0  0
   -2.1680    6.5320  -17.1000 H   0  0  0  0  0  0  0  0  0  0  0  0
   -4.1420    4.8930  -17.8760 H   0  0  0  0  0  0  0  0  0  0  0  0
   -2.0810    0.4250   -9.7750 H   0  0  0  0  0  0  0  0  0  0  0  0
   -2.8890    0.5300  -11.1940 H   0  0  0  0  0  0  0  0  0  0  0  0
   -2.8660    4.3110  -18.9570 H   0  0  0  0  0  0  0  0  0  0  0  0
   -6.2910    9.9720  -17.7090 N   0  0  1  0  0  0  0  0  0  0  0  0
   -5.1910   10.2730  -18.6720 C   0  0  2  0  0  0  0  0  0  0  0  0
   -5.5910   11.2890  -19.7410 C   0  0  0  0  0  0  0  0  0  0  0  0
   -6.7210   11.3210  -20.2270 O   0  0  0  0  0  0  0  0  0  0  0  0
   -4.7160    9.0170  -19.3720 C   0  0  1  0  0  0  0  0  0  0  0  0
   -4.1140    7.9420  -18.4760 C   0  0  2  0  0  0  0  0  0  0  0  0
   -3.5390    6.5750  -19.5090 S   0  0  0  0  0  0  0  0  0  0  0  0
   -5.0880    6.0460  -20.2610 C   0  0  2  0  0  0  0  0  0  0  0  0
   -3.2070    5.1620  -18.3680 C   0  0  1  0  0  0  0  0  0  0  0  0
   -2.1640    5.4580  -17.2870 C   0  0  1  0  0  0  0  0  0  0  0  0
   -2.4460    4.8010  -16.0670 O   0  0  0  0  0  0  0  0  0  0  0  0
   -0.7470    5.0500  -17.6440 C   0  0  1  0  0  0  0  0  0  0  0  0
    0.0370    6.2050  -17.4800 O   0  0  0  0  0  0  0  0  0  0  0  0
   -0.3540    4.0380  -16.5820 C   0  0  1  0  0  0  0  0  0  0  0  0
    1.0150    4.1340  -16.2570 O   0  0  0  0  0  0  0  0  0  0  0  0
   -1.2330    4.4740  -15.4240 C   0  0  2  0  0  0  0  0  0  0  0  0
   -4.7630   12.1130  -20.1390 O   0  0  0  0  0  0  0  0  0  0  0  0
   -1.7090    3.2810  -10.3390 N   0  0  0  0  0  0  0  0  0  0  0  0
   -1.3950    4.4960  -10.9040 C   0  0  0  0  0  0  0  0  0  0  0  0
   -1.3050    4.6350  -12.2680 N   0  0  0  0  0  0  0  0  0  0  0  0
   -1.5210    3.5720  -13.0710 C   0  0  0  0  0  0  0  0  0  0  0  0
   -1.8520    2.3350  -12.5250 C   0  0  0  0  0  0  0  0  0  0  0  0
   -1.9390    2.1870  -11.1370 C   0  0  0  0  0  0  0  0  0  0  0  0
   -2.2480    1.0120  -10.5800 N   0  0  0  0  0  0  0  0  0  0  0  0
   -2.0320    1.4650  -13.5510 N   0  0  0  0  0  0  0  0  0  0  0  0
   -1.8270    2.1230  -14.7080 C   0  0  0  0  0  0  0  0  0  0  0  0
   -1.5010    3.4230  -14.4360 N   0  0  0  0  0  0  0  0  0  0  0  0
   -4.3530   10.6850  -18.1100 H   0  0  0  0  0  0  0  0  0  0  0  0
   -5.5700    8.5800  -19.8900 H   0  0  0  0  0  0  0  0  0  0  0  0
   -3.9720    9.3000  -20.1160 H   0  0  0  0  0  0  0  0  0  0  0  0
   -4.8700    7.5810  -17.7790 H   0  0  0  0  0  0  0  0  0  0  0  0
   -3.2740    8.3580  -17.9200 H   0  0  0  0  0  0  0  0  0  0  0  0
   -5.5960    6.9080  -20.6930 H   0  0  0  0  0  0  0  0  0  0  0  0
   -5.7240    5.5930  -19.5010 H   0  0  0  0  0  0  0  0  0  0  0  0
   -4.8810    5.3170  -21.0440 H   0  0  0  0  0  0  0  0  0  0  0  0
    1.1930    4.9950  -15.8710 H   0  0  0  0  0  0  0  0  0  0  0  0
   -0.1940    6.6340  -16.6530 H   0  0  0  0  0  0  0  0  0  0  0  0
   -6.5160   10.8050  -17.1840 H   0  0  0  0  0  0  0  0  0  0  0  0
   -1.2170    5.3500  -10.2680 H   0  0  0  0  0  0  0  0  0  0  0  0
   -7.1080    9.6620  -18.2160 H   0  0  0  0  0  0  0  0  0  0  0  0
   -5.9930    9.2450  -17.0750 H   0  0  0  0  0  0  0  0  0  0  0  0
 12 11  1  0
 12 13  2  0
 12 26  1  0
 25  2  1  1
 25 20  1  0
 25 23  1  0
 25 36  1  0
 28 27  2  0
 28 29  1  0
 28 48  1  0
 23  3  1  6
 23 21  1  0
 23 24  1  0
 21  4  1  6
 21 19  1  0
 21 22  1  0
 30 29  2  0
 30 31  1  0
 30 36  1  0
 19  5  1  1
 19 18  1  0
 19 20  1  0
 31 32  2  0
 31 34  1  0
 18  6  1  1
 18  9  1  0
 16 18  1  1
 32 27  1  0
 32 33  1  0
 35  1  1  0
 35 34  2  0
 35 36  1  0
 11 10  1  0
 11 14  1  0
 11 37  1  1
 14 15  1  0
 14 38  1  6
 14 39  1  0
 17 16  1  0
 17 42  1  6
 17 43  1  0
 17 44  1  0
 15 16  1  0
 15 40  1  1
 15 41  1  0
 10 47  1  1
 49 10  1  0
 50 10  1  0
  7 33  1  0
  8 33  1  0
 45 24  1  0
 46 22  1  0
M  CHG  3  10   1  16   1  26  -1
M  END
