1jx6_AI2_ligand
     RDKit          3D

 23 24  0  0  0  0  0  0  0  0999 V2000
  -16.5960  -19.9490   10.4330 O   0  0  0  0  0  0  0  0  0  0  0  0
  -15.6770  -20.9780   10.7350 B   0  0  1  0  0  0  0  0  0  0  0  0
  -16.2040  -21.9320   11.7780 O   0  0  0  0  0  0  0  0  0  0  0  0
  -15.3740  -21.7050    9.5010 O   0  0  0  0  0  0  0  0  0  0  0  0
  -14.4820  -20.3020   11.3670 O   0  0  0  0  0  0  0  0  0  0  0  0
  -14.7860  -18.8930   11.6450 C   0  0  1  0  0  0  0  0  0  0  0  0
  -14.4180  -18.7310   13.0820 C   0  0  2  0  0  0  0  0  0  0  0  0
  -14.0110  -18.0380   10.7550 O   0  0  0  0  0  0  0  0  0  0  0  0
  -14.9260  -17.5220    9.7970 C   0  0  2  0  0  0  0  0  0  0  0  0
  -16.2820  -17.4810   10.4710 C   0  0  2  0  0  0  0  0  0  0  0  0
  -16.4380  -16.3370   11.2460 O   0  0  0  0  0  0  0  0  0  0  0  0
  -16.3460  -18.8750   11.1780 C   0  0  1  0  0  0  0  0  0  0  0  0
  -17.1600  -18.7160   12.3510 O   0  0  0  0  0  0  0  0  0  0  0  0
  -14.9610  -18.1720    8.9220 H   0  0  0  0  0  0  0  0  0  0  0  0
  -14.6270  -16.5160    9.5020 H   0  0  0  0  0  0  0  0  0  0  0  0
  -17.0440  -17.4650    9.6920 H   0  0  0  0  0  0  0  0  0  0  0  0
  -18.0630  -18.5210   12.0900 H   0  0  0  0  0  0  0  0  0  0  0  0
  -15.2590  -22.6370    9.6980 H   0  0  0  0  0  0  0  0  0  0  0  0
  -16.3790  -22.7840   11.3720 H   0  0  0  0  0  0  0  0  0  0  0  0
  -15.8770  -16.3980   12.0230 H   0  0  0  0  0  0  0  0  0  0  0  0
  -14.6090  -17.7040   13.3930 H   0  0  0  0  0  0  0  0  0  0  0  0
  -13.3610  -18.9600   13.2140 H   0  0  0  0  0  0  0  0  0  0  0  0
  -15.0160  -19.4110   13.6890 H   0  0  0  0  0  0  0  0  0  0  0  0
  2  1  1  0
  2  3  1  1
  2  4  1  0
  2  5  1  0
  7  6  1  0
  7 21  1  1
  7 22  1  0
  7 23  1  0
  6  5  1  6
  6  8  1  0
  6 12  1  0
  9  8  1  0
  9 10  1  0
  9 14  1  6
  9 15  1  0
 10 11  1  0
 10 12  1  0
 10 16  1  6
 12  1  1  0
 12 13  1  1
 18  4  1  0
 20 11  1  0
 17 13  1  0
 19  3  1  0
M  CHG  1   2  -1
M  END
