5k6j_6QQ_ligand
     RDKit          3D

 45 47  0  0  0  0  0  0  0  0999 V2000
  -37.2580   89.0810  117.4870 C   0  0  1  0  0  0  0  0  0  0  0  0
  -38.2170   90.2150  117.2350 C   0  0  0  0  0  0  0  0  0  0  0  0
  -39.5330   89.9240  116.5550 C   0  0  2  0  0  0  0  0  0  0  0  0
  -40.5050   91.1050  116.6530 C   0  0  1  0  0  0  0  0  0  0  0  0
  -41.7840   90.7760  115.8890 C   0  0  2  0  0  0  0  0  0  0  0  0
  -41.8870   91.9650  113.7520 C   0  0  0  0  0  0  0  0  0  0  0  0
  -45.3940   93.4760  114.6350 C   0  0  0  0  0  0  0  0  0  0  0  0
  -48.0980   90.8740  115.5640 C   0  0  1  0  0  0  0  0  0  0  0  0
  -45.6170   93.1300  117.0160 C   0  0  0  0  0  0  0  0  0  0  0  0
  -42.7050   94.1780  112.2980 C   0  0  0  0  0  0  0  0  0  0  0  0
  -39.7340   91.9140  112.5450 C   0  0  0  0  0  0  0  0  0  0  0  0
  -37.9140   91.3350  117.5720 O   0  0  0  0  0  0  0  0  0  0  0  0
  -41.5260   90.8710  114.4780 O   0  0  0  0  0  0  0  0  0  0  0  0
  -43.0740   92.5190  113.9360 N   0  0  0  0  0  0  0  0  0  0  0  0
  -43.5200   93.5890  113.2760 C   0  0  0  0  0  0  0  0  0  0  0  0
  -44.7640   94.0750  113.5800 O   0  0  0  0  0  0  0  0  0  0  0  0
  -46.3920   92.5290  114.4130 C   0  0  0  0  0  0  0  0  0  0  0  0
  -47.0000   91.9010  115.4860 C   0  0  0  0  0  0  0  0  0  0  0  0
  -48.3830   90.6170  116.9540 O   0  0  0  0  0  0  0  0  0  0  0  0
  -47.4840   91.3050  117.7460 B   0  0  1  0  0  0  0  0  0  0  0  0
  -48.1290   91.9590  118.7670 O   0  0  0  0  0  0  0  0  0  0  0  0
  -46.6020   90.4220  118.3110 O   0  0  0  0  0  0  0  0  0  0  0  0
  -46.6270   92.2080  116.7990 C   0  0  0  0  0  0  0  0  0  0  0  0
  -45.0040   93.7640  115.9430 C   0  0  0  0  0  0  0  0  0  0  0  0
  -43.2390   95.5650  111.4030 Cl  0  0  0  0  0  0  0  0  0  0  0  0
  -41.4460   93.6330  112.0430 C   0  0  0  0  0  0  0  0  0  0  0  0
  -41.0190   92.5030  112.7760 C   0  0  0  0  0  0  0  0  0  0  0  0
  -38.7080   91.4640  112.3420 N   0  0  0  0  0  0  0  0  0  0  0  0
  -39.9880   89.0540  117.0280 H   0  0  0  0  0  0  0  0  0  0  0  0
  -39.3480   89.7010  115.5040 H   0  0  0  0  0  0  0  0  0  0  0  0
  -40.7450   91.2910  117.6990 H   0  0  0  0  0  0  0  0  0  0  0  0
  -40.0420   91.9930  116.2220 H   0  0  0  0  0  0  0  0  0  0  0  0
  -42.5660   91.4820  116.1650 H   0  0  0  0  0  0  0  0  0  0  0  0
  -42.1040   89.7630  116.1330 H   0  0  0  0  0  0  0  0  0  0  0  0
  -48.9920   91.2520  115.0680 H   0  0  0  0  0  0  0  0  0  0  0  0
  -47.7730   89.9520  115.0800 H   0  0  0  0  0  0  0  0  0  0  0  0
  -45.3040   93.3580  118.0240 H   0  0  0  0  0  0  0  0  0  0  0  0
  -46.6920   92.2850  113.4040 H   0  0  0  0  0  0  0  0  0  0  0  0
  -44.2200   94.4850  116.1220 H   0  0  0  0  0  0  0  0  0  0  0  0
  -40.8050   94.0710  111.2930 H   0  0  0  0  0  0  0  0  0  0  0  0
  -49.0780   91.9110  118.6280 H   0  0  0  0  0  0  0  0  0  0  0  0
  -46.7290   89.5520  117.9260 H   0  0  0  0  0  0  0  0  0  0  0  0
  -36.3640   89.4620  117.9810 H   0  0  0  0  0  0  0  0  0  0  0  0
  -37.7350   88.3360  118.1230 H   0  0  0  0  0  0  0  0  0  0  0  0
  -36.9790   88.6230  116.5380 H   0  0  0  0  0  0  0  0  0  0  0  0
 20 19  1  0
 20 21  1  1
 20 22  1  0
 20 23  1  0
  1  2  1  0
  1 43  1  1
  1 44  1  0
  1 45  1  0
 15 10  1  0
 15 14  2  0
 15 16  1  0
  7 16  1  0
  7 17  1  0
  7 24  2  0
 17 18  2  0
 17 38  1  0
 18  8  1  0
 18 23  1  0
  8 19  1  0
  8 35  1  6
  8 36  1  0
  2  3  1  0
  2 12  2  0
 23  9  2  0
  9 24  1  0
  9 37  1  0
 24 39  1  0
 10 25  1  0
 10 26  2  0
 26 27  1  0
 26 40  1  0
 27  6  2  0
 27 11  1  0
 11 28  3  0
  3  4  1  0
  3 29  1  1
  3 30  1  0
  4  5  1  0
  4 31  1  1
  4 32  1  0
  5 13  1  0
  5 33  1  1
  5 34  1  0
  6 13  1  0
  6 14  1  0
 41 21  1  0
 42 22  1  0
M  CHG  1  20  -1
M  END
