5lmd_RC4_ligand
     RDKit          3D

 42 44  0  0  0  0  0  0  0  0999 V2000
   -6.7000    3.9400   15.3890 C   0  0  0  0  0  0  0  0  0  0  0  0
   -5.6240    4.5930   14.8230 C   0  0  0  0  0  0  0  0  0  0  0  0
   -4.3760    3.9920   14.7390 C   0  0  0  0  0  0  0  0  0  0  0  0
   -4.2020    2.7080   15.2290 C   0  0  0  0  0  0  0  0  0  0  0  0
   -5.2770    2.0160   15.8120 C   0  0  0  0  0  0  0  0  0  0  0  0
   -6.5250    2.6390   15.8850 C   0  0  0  0  0  0  0  0  0  0  0  0
   -7.5040    1.6920   16.4900 C   0  0  1  0  0  0  0  0  0  0  0  0
   -5.4920    0.5840   16.5250 B   0  0  2  0  0  0  0  0  0  0  0  0
   -5.2060    0.5730   17.9470 O   0  0  0  0  0  0  0  0  0  0  0  0
    1.7450    6.4140   11.5110 C   0  0  1  0  0  0  0  0  0  0  0  0
    0.5100    8.8080   12.2290 C   0  0  0  0  0  0  0  0  0  0  0  0
   -0.0600    7.5900   12.5520 C   0  0  0  0  0  0  0  0  0  0  0  0
   -0.0670   10.0050   12.6020 C   0  0  0  0  0  0  0  0  0  0  0  0
   -1.2470    9.9490   13.3210 C   0  0  0  0  0  0  0  0  0  0  0  0
   -1.8280    8.7500   13.6540 C   0  0  0  0  0  0  0  0  0  0  0  0
   -1.2500    7.5390   13.2760 C   0  0  0  0  0  0  0  0  0  0  0  0
   -3.8870    6.8380   14.2610 O   0  0  0  0  0  0  0  0  0  0  0  0
    0.4840    6.3980   12.1920 O   0  0  0  0  0  0  0  0  0  0  0  0
   -3.2230    4.6400   14.2380 N   0  0  0  0  0  0  0  0  0  0  0  0
   -1.7900    6.2630   13.5730 N   0  0  0  0  0  0  0  0  0  0  0  0
   -3.0280    5.9820   14.0490 C   0  0  0  0  0  0  0  0  0  0  0  0
   -1.9130   11.2470   13.7450 C   0  0  1  0  0  0  0  0  0  0  0  0
   -4.9730   -0.6010   15.9100 O   0  0  0  0  0  0  0  0  0  0  0  0
   -6.9060    0.4100   16.3670 O   0  0  0  0  0  0  0  0  0  0  0  0
   -7.6640    4.4240   15.4480 H   0  0  0  0  0  0  0  0  0  0  0  0
   -5.7550    5.5940   14.4380 H   0  0  0  0  0  0  0  0  0  0  0  0
   -3.2340    2.2350   15.1630 H   0  0  0  0  0  0  0  0  0  0  0  0
   -7.6740    1.9360   17.5380 H   0  0  0  0  0  0  0  0  0  0  0  0
   -8.4450    1.7220   15.9390 H   0  0  0  0  0  0  0  0  0  0  0  0
    1.4340    8.8230   11.6690 H   0  0  0  0  0  0  0  0  0  0  0  0
    0.3850   10.9500   12.3410 H   0  0  0  0  0  0  0  0  0  0  0  0
   -2.7490    8.7460   14.2180 H   0  0  0  0  0  0  0  0  0  0  0  0
   -2.4500    4.0400   13.9890 H   0  0  0  0  0  0  0  0  0  0  0  0
   -1.1840    5.4710   13.4110 H   0  0  0  0  0  0  0  0  0  0  0  0
   -4.5050   -1.1220   16.5660 H   0  0  0  0  0  0  0  0  0  0  0  0
   -5.6940   -0.1390   18.3660 H   0  0  0  0  0  0  0  0  0  0  0  0
    2.0660    5.3910   11.3160 H   0  0  0  0  0  0  0  0  0  0  0  0
    1.6410    6.9480   10.5670 H   0  0  0  0  0  0  0  0  0  0  0  0
    2.4880    6.9150   12.1320 H   0  0  0  0  0  0  0  0  0  0  0  0
   -2.8260   11.0240   14.2980 H   0  0  0  0  0  0  0  0  0  0  0  0
   -1.2330   11.8150   14.3800 H   0  0  0  0  0  0  0  0  0  0  0  0
   -2.1600   11.8350   12.8600 H   0  0  0  0  0  0  0  0  0  0  0  0
  8  5  1  0
  8  9  1  1
  8 23  1  0
  8 24  1  0
  5  4  1  0
  5  6  2  0
 12 11  2  0
 12 16  1  0
 12 18  1  0
 11 13  1  0
 11 30  1  0
 13 14  2  0
 13 31  1  0
 14 15  1  0
 14 22  1  0
 15 16  2  0
 15 32  1  0
 22 40  1  1
 22 41  1  0
 22 42  1  0
 10 18  1  0
 10 37  1  6
 10 38  1  0
 10 39  1  0
  4  3  2  0
  4 27  1  0
  3  2  1  0
  3 19  1  0
  2  1  2  0
  2 26  1  0
  1  6  1  0
  1 25  1  0
  6  7  1  0
  7 24  1  0
  7 28  1  1
  7 29  1  0
 21 17  2  0
 21 19  1  0
 21 20  1  0
 16 20  1  0
 33 19  1  0
 34 20  1  0
 35 23  1  0
 36  9  1  0
M  CHG  1   8  -1
M  END
