6v7c
     RDKit          3D

 42 43  0  0  0  0  0  0  0  0999 V2000
  -19.3440   15.5530  -12.9580 O   0  0  0  0  0  0  0  0  0  0  0  0
  -20.0600   16.0320  -12.0830 C   0  0  0  0  0  0  0  0  0  0  0  0
  -20.0280   15.6550  -10.8240 O   0  0  0  0  0  1  0  0  0  0  0  0
  -21.0610   17.1820  -12.3300 C   0  0  2  0  0  0  0  0  0  0  0  0
  -21.0280   17.4390  -13.8060 N   0  0  0  0  0  4  0  0  0  0  0  0
  -20.7580   18.4930  -11.5760 C   0  0  0  0  0  0  0  0  0  0  0  0
  -21.5540   18.4410  -10.2650 C   0  0  1  0  0  0  0  0  0  0  0  0
  -22.0640   19.8380   -9.9430 C   0  0  0  0  0  0  0  0  0  0  0  0
  -23.4230   19.8850  -10.5760 N   0  0  0  0  0  4  0  0  0  0  0  0
  -24.0090   18.5100  -10.4980 C   0  0  0  0  0  0  0  0  0  0  0  0
  -22.8080   17.5820  -10.5690 C   0  0  1  0  0  0  0  0  0  0  0  0
  -22.5500   16.8730  -11.9200 C   0  0  2  0  0  0  0  0  0  0  0  0
  -22.9220   15.3900  -11.9240 C   0  0  0  0  0  0  0  0  0  0  0  0
  -24.3060   14.9940  -12.4280 C   0  0  0  0  0  0  0  0  0  0  0  0
  -24.6760   13.5370  -12.1120 C   0  0  0  0  0  0  0  0  0  0  0  0
  -26.2050   13.2620  -12.4240 B   0  0  0  0  0  4  0  0  0  0  0  0
  -26.7470   13.7810  -13.6850 O   0  0  0  0  0  0  0  0  0  0  0  0
  -27.1280   13.8870  -11.4710 O   0  0  0  0  0  0  0  0  0  0  0  0
  -26.4550   11.7840  -12.3570 O   0  0  0  0  0  0  0  0  0  0  0  0
  -21.0710   19.3500  -12.1710 H   0  0  0  0  0  0  0  0  0  0  0  0
  -19.6910   18.5600  -11.3600 H   0  0  0  0  0  0  0  0  0  0  0  0
  -20.9650   18.0250   -9.4490 H   0  0  0  0  0  0  0  0  0  0  0  0
  -21.4100   20.5970  -10.3730 H   0  0  0  0  0  0  0  0  0  0  0  0
  -22.1430   19.9730   -8.8650 H   0  0  0  0  0  0  0  0  0  0  0  0
  -24.0110   20.5380  -10.0780 H   0  0  0  0  0  0  0  0  0  0  0  0
  -23.3400   20.1670  -11.5420 H   0  0  0  0  0  0  0  0  0  0  0  0
  -24.6840   18.3320  -11.3350 H   0  0  0  0  0  0  0  0  0  0  0  0
  -24.5350   18.3770   -9.5530 H   0  0  0  0  0  0  0  0  0  0  0  0
  -22.9070   16.8240   -9.7920 H   0  0  0  0  0  0  0  0  0  0  0  0
  -23.1870   17.3590  -12.6580 H   0  0  0  0  0  0  0  0  0  0  0  0
  -22.8380   15.0330  -10.8970 H   0  0  0  0  0  0  0  0  0  0  0  0
  -22.1830   14.8600  -12.5240 H   0  0  0  0  0  0  0  0  0  0  0  0
  -25.0430   15.6460  -11.9600 H   0  0  0  0  0  0  0  0  0  0  0  0
  -24.3420   15.1400  -13.5070 H   0  0  0  0  0  0  0  0  0  0  0  0
  -24.4860   13.3420  -11.0570 H   0  0  0  0  0  0  0  0  0  0  0  0
  -24.0600   12.8720  -12.7180 H   0  0  0  0  0  0  0  0  0  0  0  0
  -26.9560   11.5800  -11.5640 H   0  0  0  0  0  0  0  0  0  0  0  0
  -20.1740   17.9220  -14.0440 H   0  0  0  0  0  0  0  0  0  0  0  0
  -21.0660   16.5590  -14.3020 H   0  0  0  0  0  0  0  0  0  0  0  0
  -21.8200   18.0070  -14.0670 H   0  0  0  0  0  0  0  0  0  0  0  0
  -27.4770   13.2170  -10.8780 H   0  0  0  0  0  0  0  0  0  0  0  0
  -26.0320   14.1340  -14.2200 H   0  0  0  0  0  0  0  0  0  0  0  0
 16 15  1  0
 16 17  1  0
 16 18  1  0
 16 19  1  0
  4  2  1  0
  4  5  1  6
  4  6  1  0
  4 12  1  0
  2  1  2  0
  2  3  1  0
 15 14  1  0
 15 35  1  0
 15 36  1  0
 12 11  1  0
 12 13  1  0
 12 30  1  6
 11  7  1  0
 11 10  1  0
 11 29  1  1
  7  6  1  0
  7  8  1  0
  7 22  1  1
  8  9  1  0
  8 23  1  0
  8 24  1  0
 10  9  1  0
 10 27  1  0
 10 28  1  0
  6 20  1  0
  6 21  1  0
 13 14  1  0
 13 31  1  0
 13 32  1  0
 14 33  1  0
 14 34  1  0
  5 38  1  0
  9 25  1  0
 26  9  1  0
 39  5  1  0
 40  5  1  0
 37 19  1  0
 41 18  1  0
 42 17  1  0
M  CHG  4   3  -1   5   1   9   1  16  -1
M  END
