3e6k_ABH_ligand
     RDKit          3D

 28 27  0  0  0  0  0  0  0  0999 V2000
  -20.8670   17.3520  -13.6290 N   0  0  0  0  0  4  0  0  0  0  0  0
  -21.0500   17.2420  -12.1570 C   0  0  2  0  0  0  0  0  0  0  0  0
  -20.0560   16.1380  -11.6950 C   0  0  0  0  0  0  0  0  0  0  0  0
  -19.9020   15.7520  -10.5720 O   0  0  0  0  0  0  0  0  0  0  0  0
  -19.3550   15.6310  -12.7340 O   0  0  0  0  0  1  0  0  0  0  0  0
  -22.5320   16.8520  -11.8220 C   0  0  0  0  0  0  0  0  0  0  0  0
  -22.9460   15.4150  -12.1320 C   0  0  0  0  0  0  0  0  0  0  0  0
  -24.4450   15.1860  -12.1940 C   0  0  0  0  0  0  0  0  0  0  0  0
  -24.7840   13.7000  -12.3030 C   0  0  0  0  0  0  0  0  0  0  0  0
  -26.3070   13.2960  -12.3910 B   0  0  0  0  0  4  0  0  0  0  0  0
  -26.4530   11.8760  -12.1260 O   0  0  0  0  0  0  0  0  0  0  0  0
  -26.8140   13.5100  -13.7270 O   0  0  0  0  0  0  0  0  0  0  0  0
  -27.1810   14.0150  -11.4870 O   0  0  0  0  0  0  0  0  0  0  0  0
  -20.7990   18.1890  -11.6800 H   0  0  0  0  0  0  0  0  0  0  0  0
  -22.6850   17.0180  -10.7560 H   0  0  0  0  0  0  0  0  0  0  0  0
  -23.1930   17.5230  -12.3700 H   0  0  0  0  0  0  0  0  0  0  0  0
  -22.5350   14.7690  -11.3560 H   0  0  0  0  0  0  0  0  0  0  0  0
  -22.5110   15.1270  -13.0890 H   0  0  0  0  0  0  0  0  0  0  0  0
  -24.9010   15.5870  -11.2890 H   0  0  0  0  0  0  0  0  0  0  0  0
  -24.8500   15.7090  -13.0600 H   0  0  0  0  0  0  0  0  0  0  0  0
  -24.3670   13.2060  -11.4260 H   0  0  0  0  0  0  0  0  0  0  0  0
  -24.2800   13.3030  -13.1850 H   0  0  0  0  0  0  0  0  0  0  0  0
  -26.1280   13.9090  -14.2690 H   0  0  0  0  0  0  0  0  0  0  0  0
  -26.8060   11.7490  -11.2420 H   0  0  0  0  0  0  0  0  0  0  0  0
  -27.6000   13.3940  -10.8850 H   0  0  0  0  0  0  0  0  0  0  0  0
  -21.4890   18.0590  -13.9950 H   0  0  0  0  0  0  0  0  0  0  0  0
  -19.9110   17.6080  -13.8310 H   0  0  0  0  0  0  0  0  0  0  0  0
  -21.0760   16.4630  -14.0620 H   0  0  0  0  0  0  0  0  0  0  0  0
 10  9  1  0
 10 11  1  0
 10 12  1  0
 10 13  1  0
  3  2  1  0
  3  4  2  0
  3  5  1  0
  2 14  1  1
  2  1  1  0
  2  6  1  0
  6 15  1  0
  6 16  1  0
  6  7  1  0
  8  9  1  0
  8 19  1  0
  8 20  1  0
  8  7  1  0
  9 21  1  0
  9 22  1  0
  7 17  1  0
  7 18  1  0
 23 12  1  0
 24 11  1  0
 25 13  1  0
  1 26  1  0
 27  1  1  0
 28  1  1  0
M  CHG  3   1   1   5  -1  10  -1
M  END
