6q37
     RDKit          3D

 35 35  0  0  0  0  0  0  0  0999 V2000
   35.5570   85.8740   71.6260 C   0  0  0  0  0  0  0  0  0  0  0  0
   33.9240   88.6960   71.5590 C   0  0  0  0  0  0  0  0  0  0  0  0
   34.9460   88.9780   72.2410 O   0  0  0  0  0  0  0  0  0  0  0  0
   33.2030   89.5740   71.0120 O   0  0  0  0  0  1  0  0  0  0  0  0
   37.3220   86.7120   66.1940 B   0  0  0  0  0  4  0  0  0  0  0  0
   33.5440   87.2360   71.4140 C   0  0  1  0  0  0  0  0  0  0  0  0
   34.6020   86.4790   70.5930 C   0  0  1  0  0  0  0  0  0  0  0  0
   35.3700   87.3050   69.5590 C   0  0  0  0  0  0  0  0  0  0  0  0
   36.1510   86.4570   68.5370 C   0  0  0  0  0  0  0  0  0  0  0  0
   36.9580   87.3700   67.5970 C   0  0  0  0  0  0  0  0  0  0  0  0
   33.5550   86.6100   72.8230 C   0  0  0  0  0  0  0  0  0  0  0  0
   34.7650   85.8080   72.8500 N   0  0  0  0  0  4  0  0  0  0  0  0
   32.2030   87.0790   70.8110 N   0  0  0  0  0  4  0  0  0  0  0  0
   36.2880   85.8510   65.5160 O   0  0  0  0  0  0  0  0  0  0  0  0
   38.3900   85.6590   66.6080 O   0  0  0  0  0  0  0  0  0  0  0  0
   38.0920   87.5820   65.2240 O   0  0  0  0  0  0  0  0  0  0  0  0
   35.8780   84.8790   71.3190 H   0  0  0  0  0  0  0  0  0  0  0  0
   36.4210   86.5230   71.7680 H   0  0  0  0  0  0  0  0  0  0  0  0
   34.1050   85.6610   70.0720 H   0  0  0  0  0  0  0  0  0  0  0  0
   36.0780   87.9430   70.0870 H   0  0  0  0  0  0  0  0  0  0  0  0
   34.6630   87.9360   69.0210 H   0  0  0  0  0  0  0  0  0  0  0  0
   36.8340   85.7930   69.0680 H   0  0  0  0  0  0  0  0  0  0  0  0
   35.4510   85.8620   67.9510 H   0  0  0  0  0  0  0  0  0  0  0  0
   37.8870   87.6390   68.0980 H   0  0  0  0  0  0  0  0  0  0  0  0
   36.3830   88.2780   67.4160 H   0  0  0  0  0  0  0  0  0  0  0  0
   32.6750   85.9850   72.9740 H   0  0  0  0  0  0  0  0  0  0  0  0
   33.6000   87.3890   73.5840 H   0  0  0  0  0  0  0  0  0  0  0  0
   34.5020   84.8450   73.0060 H   0  0  0  0  0  0  0  0  0  0  0  0
   35.3380   86.1160   73.6220 H   0  0  0  0  0  0  0  0  0  0  0  0
   32.1110   87.7060   70.0250 H   0  0  0  0  0  0  0  0  0  0  0  0
   32.0850   86.1260   70.4960 H   0  0  0  0  0  0  0  0  0  0  0  0
   31.4960   87.2960   71.5000 H   0  0  0  0  0  0  0  0  0  0  0  0
   39.0330   87.4120   65.3190 H   0  0  0  0  0  0  0  0  0  0  0  0
   35.4130   86.1090   65.8120 H   0  0  0  0  0  0  0  0  0  0  0  0
   39.2490   85.9290   66.2750 H   0  0  0  0  0  0  0  0  0  0  0  0
  5 10  1  0
  5 14  1  0
  5 15  1  0
  5 16  1  0
  6  2  1  0
  6  7  1  0
  6 11  1  0
  6 13  1  6
  1  7  1  0
  1 12  1  0
  1 17  1  0
  1 18  1  0
  2  3  2  0
  2  4  1  0
  7  8  1  0
  7 19  1  6
  8  9  1  0
  8 20  1  0
  8 21  1  0
  9 10  1  0
  9 23  1  0
  9 22  1  0
 10 24  1  0
 10 25  1  0
 11 12  1  0
 11 26  1  0
 11 27  1  0
 12 28  1  0
 29 12  1  0
 13 30  1  0
 31 13  1  0
 32 13  1  0
 34 14  1  0
 35 15  1  0
 33 16  1  0
M  CHG  4   4  -1   5  -1  12   1  13   1
M  END
