5u4c_XBS_ligand
     RDKit          3D

 32 33  0  0  0  0  0  0  0  0999 V2000
  -21.6180    1.3470  -21.5310 C   0  0  0  0  0  0  0  0  0  0  0  0
  -21.7900    0.0260  -21.9040 C   0  0  0  0  0  0  0  0  0  0  0  0
  -21.8140   -0.3200  -23.2460 C   0  0  0  0  0  0  0  0  0  0  0  0
  -21.6500    0.6700  -24.2040 C   0  0  0  0  0  0  0  0  0  0  0  0
  -21.4940    1.9910  -23.8200 C   0  0  0  0  0  0  0  0  0  0  0  0
  -21.4690    2.3360  -22.4850 C   0  0  0  0  0  0  0  0  0  0  0  0
  -21.6840    0.3750  -25.6850 C   0  0  0  0  0  0  0  0  0  0  0  0
  -22.5440   -0.4690  -26.2660 C   0  0  0  0  0  0  0  0  0  0  0  0
  -22.6570   -0.7650  -27.7450 C   0  0  0  0  0  0  0  0  0  0  0  0
  -23.7650   -1.4660  -28.1870 C   0  0  0  0  0  0  0  0  0  0  0  0
  -23.9250   -1.7430  -29.5320 C   0  0  0  0  0  0  0  0  0  0  0  0
  -22.9790   -1.3090  -30.4430 C   0  0  0  0  0  0  0  0  0  0  0  0
  -21.8710   -0.5980  -30.0090 C   0  0  0  0  0  0  0  0  0  0  0  0
  -21.7120   -0.3190  -28.6570 C   0  0  0  0  0  0  0  0  0  0  0  0
  -21.9530   -1.0160  -20.8220 C   0  0  0  0  0  0  0  0  0  0  0  0
  -24.4590   -2.1210  -32.5000 O   0  0  0  0  0  0  0  0  0  0  0  0
  -22.1060   -1.4990  -32.9620 O   0  0  0  0  0  0  0  0  0  0  0  0
  -22.2520   -2.2110  -21.1080 O   0  0  0  0  0  0  0  0  0  0  0  0
  -21.7900   -0.6750  -19.6190 O   0  0  0  0  0  0  0  0  0  0  0  0
  -23.1880   -1.6580  -32.0420 B   0  0  0  0  0  0  0  0  0  0  0  0
  -21.6010    1.6090  -20.4830 H   0  0  0  0  0  0  0  0  0  0  0  0
  -21.9590   -1.3490  -23.5420 H   0  0  0  0  0  0  0  0  0  0  0  0
  -21.3900    2.7590  -24.5730 H   0  0  0  0  0  0  0  0  0  0  0  0
  -21.3350    3.3660  -22.1890 H   0  0  0  0  0  0  0  0  0  0  0  0
  -20.9660    0.8780  -26.3170 H   0  0  0  0  0  0  0  0  0  0  0  0
  -23.2270   -0.9920  -25.6130 H   0  0  0  0  0  0  0  0  0  0  0  0
  -24.5090   -1.7990  -27.4780 H   0  0  0  0  0  0  0  0  0  0  0  0
  -24.7880   -2.2960  -29.8710 H   0  0  0  0  0  0  0  0  0  0  0  0
  -21.1310   -0.2620  -30.7210 H   0  0  0  0  0  0  0  0  0  0  0  0
  -20.8550    0.2430  -28.3170 H   0  0  0  0  0  0  0  0  0  0  0  0
  -24.4530   -3.0800  -32.5430 H   0  0  0  0  0  0  0  0  0  0  0  0
  -21.3420   -1.9870  -32.6450 H   0  0  0  0  0  0  0  0  0  0  0  0
 20 12  1  0
 20 16  1  0
 20 17  1  0
  1  2  2  0
  1  6  1  0
  1 21  1  0
  2  3  1  0
  2 15  1  0
  3  4  2  0
  3 22  1  0
  4  5  1  0
  4  7  1  0
  5  6  2  0
  5 23  1  0
  6 24  1  0
  7  8  2  3
  7 25  1  0
  8  9  1  0
  8 26  1  0
  9 10  2  0
  9 14  1  0
 10 11  1  0
 10 27  1  0
 11 12  2  0
 11 28  1  0
 12 13  1  0
 13 14  2  0
 13 29  1  0
 14 30  1  0
 15 18  2  0
 15 19  1  0
 32 17  1  0
 31 16  1  0
M  CHG  1  19  -1
M  END
