4IE2_1EC_ligand
     RDKit          3D

 38 37  0  0  0  0  0  0  0  0999 V2000
   35.2190   89.1560   72.1800 O   0  0  0  0  0  1  0  0  0  0  0  0
   34.1580   88.7100   71.6810 C   0  0  0  0  0  0  0  0  0  0  0  0
   33.2260   89.4640   71.3100 O   0  0  0  0  0  0  0  0  0  0  0  0
   33.9770   87.2200   71.5180 C   0  0  2  0  0  0  0  0  0  0  0  0
   32.6750   86.9700   70.8780 N   0  0  0  0  0  4  0  0  0  0  0  0
   34.0240   86.5450   72.8910 C   0  0  0  0  0  0  0  0  0  0  0  0
   33.0760   87.1710   73.9060 C   0  0  0  0  0  0  0  0  0  0  0  0
   32.8990   86.2310   75.0980 C   0  0  0  0  0  0  0  0  0  0  0  0
   32.0550   85.1450   74.6800 O   0  0  0  0  0  0  0  0  0  0  0  0
   35.0970   86.6150   70.6820 C   0  0  0  0  0  0  0  0  0  0  0  0
   35.2800   87.2740   69.3220 C   0  0  0  0  0  0  0  0  0  0  0  0
   36.3610   86.5670   68.4950 C   0  0  0  0  0  0  0  0  0  0  0  0
   36.9790   87.5400   67.4900 C   0  0  0  0  0  0  0  0  0  0  0  0
   37.2870   86.8720   66.0800 B   0  0  0  0  0  4  0  0  0  0  0  0
   38.4150   85.8840   66.4340 O   0  0  0  0  0  0  0  0  0  0  0  0
   36.3000   85.9010   65.4710 O   0  0  0  0  0  0  0  0  0  0  0  0
   37.9930   87.7820   65.1020 O   0  0  0  0  0  0  0  0  0  0  0  0
   35.0410   86.6190   73.2770 H   0  0  0  0  0  0  0  0  0  0  0  0
   33.7690   85.4920   72.7740 H   0  0  0  0  0  0  0  0  0  0  0  0
   33.4900   88.1190   74.2500 H   0  0  0  0  0  0  0  0  0  0  0  0
   32.1080   87.3470   73.4370 H   0  0  0  0  0  0  0  0  0  0  0  0
   32.4330   86.7660   75.9260 H   0  0  0  0  0  0  0  0  0  0  0  0
   33.8700   85.8450   75.4100 H   0  0  0  0  0  0  0  0  0  0  0  0
   34.8750   85.5600   70.5250 H   0  0  0  0  0  0  0  0  0  0  0  0
   36.0310   86.6970   71.2390 H   0  0  0  0  0  0  0  0  0  0  0  0
   34.3360   87.2330   68.7790 H   0  0  0  0  0  0  0  0  0  0  0  0
   35.5640   88.3160   69.4650 H   0  0  0  0  0  0  0  0  0  0  0  0
   37.1390   86.1960   69.1630 H   0  0  0  0  0  0  0  0  0  0  0  0
   35.9160   85.7280   67.9600 H   0  0  0  0  0  0  0  0  0  0  0  0
   37.9130   87.9200   67.9040 H   0  0  0  0  0  0  0  0  0  0  0  0
   36.2950   88.3750   67.3410 H   0  0  0  0  0  0  0  0  0  0  0  0
   32.5730   87.5750   70.0750 H   0  0  0  0  0  0  0  0  0  0  0  0
   31.9330   87.1580   71.5370 H   0  0  0  0  0  0  0  0  0  0  0  0
   32.6260   86.0060   70.5810 H   0  0  0  0  0  0  0  0  0  0  0  0
   31.6580   85.3570   73.8320 H   0  0  0  0  0  0  0  0  0  0  0  0
   37.7380   88.6920   65.2720 H   0  0  0  0  0  0  0  0  0  0  0  0
   35.4150   86.1110   65.7770 H   0  0  0  0  0  0  0  0  0  0  0  0
   38.6880   85.4130   65.6440 H   0  0  0  0  0  0  0  0  0  0  0  0
 14 13  1  0
 14 15  1  0
 14 16  1  0
 14 17  1  0
  2  3  2  0
  4  2  1  0
  2  1  1  0
  4  6  1  1
  6  7  1  0
  6 18  1  0
  6 19  1  0
  7  8  1  0
  7 20  1  0
  7 21  1  0
  8  9  1  0
  8 22  1  0
  8 23  1  0
  4  5  1  0
  4 10  1  0
 10 11  1  0
 10 24  1  0
 10 25  1  0
 11 12  1  0
 11 26  1  0
 11 27  1  0
 12 13  1  0
 12 28  1  0
 12 29  1  0
 13 30  1  0
 13 31  1  0
 36 17  1  0
 37 16  1  0
  5 32  1  0
 33  5  1  0
 34  5  1  0
 35  9  1  0
 38 15  1  0
M  CHG  3   1  -1   5   1  14  -1
M  END
