7k4g_VUV_ligand
     RDKit          3D

 32 32  0  0  0  0  0  0  0  0999 V2000
  -21.0920   17.1220  -11.8310 C   0  0  1  0  0  0  0  0  0  0  0  0
  -20.1200   15.8990  -11.8010 C   0  0  0  0  0  0  0  0  0  0  0  0
  -22.4400   18.3300  -13.4730 C   0  0  1  0  0  0  0  0  0  0  0  0
  -23.2790   18.0000  -12.2410 C   0  0  2  0  0  0  0  0  0  0  0  0
  -19.5390   15.4570  -12.7770 O   0  0  0  0  0  0  0  0  0  0  0  0
  -20.0000   15.4170  -10.5960 O   0  0  0  0  0  0  0  0  0  0  0  0
  -21.0650   17.7690  -13.1880 N   0  0  1  0  0  0  0  0  0  0  0  0
  -22.5700   16.8070  -11.5850 C   0  0  1  0  0  0  0  0  0  0  0  0
  -22.9990   15.4270  -12.1250 C   0  0  1  0  0  0  0  0  0  0  0  0
  -24.4420   15.0110  -11.8270 C   0  0  2  0  0  0  0  0  0  0  0  0
  -24.7400   13.5440  -12.1410 C   0  0  1  0  0  0  0  0  0  0  0  0
  -26.2540   13.3160  -12.3930 B   0  0  1  0  0  0  0  0  0  0  0  0
  -27.1150   13.7940  -11.2880 O   0  0  0  0  0  0  0  0  0  0  0  0
  -26.7470   13.9750  -13.6100 O   0  0  0  0  0  0  0  0  0  0  0  0
  -26.5650   11.8990  -12.5750 O   0  0  0  0  0  0  0  0  0  0  0  0
  -20.7610   17.8500  -11.0900 H   0  0  0  0  0  0  0  0  0  0  0  0
  -22.8650   17.8620  -14.3610 H   0  0  0  0  0  0  0  0  0  0  0  0
  -22.3820   19.4110  -13.6090 H   0  0  0  0  0  0  0  0  0  0  0  0
  -24.2950   17.7310  -12.5300 H   0  0  0  0  0  0  0  0  0  0  0  0
  -23.2950   18.8490  -11.5580 H   0  0  0  0  0  0  0  0  0  0  0  0
  -20.3830   18.5130  -13.1980 H   0  0  0  0  0  0  0  0  0  0  0  0
  -20.8270   17.0800  -13.8880 H   0  0  0  0  0  0  0  0  0  0  0  0
  -22.7590   16.8360  -10.5130 H   0  0  0  0  0  0  0  0  0  0  0  0
  -22.8720   15.4390  -13.2080 H   0  0  0  0  0  0  0  0  0  0  0  0
  -22.3320   14.6740  -11.7090 H   0  0  0  0  0  0  0  0  0  0  0  0
  -25.1080   15.6320  -12.4250 H   0  0  0  0  0  0  0  0  0  0  0  0
  -24.6470   15.1920  -10.7720 H   0  0  0  0  0  0  0  0  0  0  0  0
  -24.1850   13.2510  -13.0310 H   0  0  0  0  0  0  0  0  0  0  0  0
  -24.4200   12.9270  -11.3010 H   0  0  0  0  0  0  0  0  0  0  0  0
  -26.0080   14.3630  -14.0860 H   0  0  0  0  0  0  0  0  0  0  0  0
  -27.0910   11.5890  -11.8360 H   0  0  0  0  0  0  0  0  0  0  0  0
  -26.6190   14.4010  -10.7340 H   0  0  0  0  0  0  0  0  0  0  0  0
 12 11  1  0
 12 13  1  1
 12 14  1  0
 12 15  1  0
 11 10  1  0
 11 28  1  6
 11 29  1  0
 10  9  1  0
 10 26  1  6
 10 27  1  0
  9  8  1  0
  9 24  1  6
  9 25  1  0
  8  1  1  0
  8  4  1  0
  8 23  1  1
  1  2  1  0
  1  7  1  0
  1 16  1  1
  2  5  2  0
  2  6  1  0
  3  4  1  0
  3  7  1  0
  3 17  1  6
  3 18  1  0
  4 19  1  6
  4 20  1  0
  7 21  1  1
 22  7  1  0
 30 14  1  0
 31 15  1  0
 32 13  1  0
M  CHG  3   6  -1   7   1  12  -1
M  END
