7k4i_VUY_ligand
     RDKit          3D

 34 35  0  0  0  0  0  0  0  0999 V2000
  -22.8870   17.5410  -10.2730 C   0  0  1  0  0  0  0  0  0  0  0  0
  -22.5550   16.8190  -11.5880 C   0  0  2  0  0  0  0  0  0  0  0  0
  -22.9480   15.3280  -11.7600 C   0  0  1  0  0  0  0  0  0  0  0  0
  -24.4300   14.9590  -11.8720 C   0  0  1  0  0  0  0  0  0  0  0  0
  -24.7050   13.4810  -12.1450 C   0  0  1  0  0  0  0  0  0  0  0  0
  -19.9730   15.6330  -10.4220 O   0  0  0  0  0  0  0  0  0  0  0  0
  -20.0910   16.0330  -11.5650 C   0  0  0  0  0  0  0  0  0  0  0  0
  -19.4480   15.5530  -12.6030 O   0  0  0  0  0  0  0  0  0  0  0  0
  -21.0610   17.1470  -11.8930 C   0  0  1  0  0  0  0  0  0  0  0  0
  -23.3680   19.0650  -11.1940 S   0  0  0  0  0  0  0  0  0  0  0  0
  -23.2580   17.8250  -12.5550 C   0  0  1  0  0  0  0  0  0  0  0  0
  -22.3040   18.1700  -13.7010 C   0  0  1  0  0  0  0  0  0  0  0  0
  -21.0070   17.5020  -13.3450 N   0  0  1  0  0  0  0  0  0  0  0  0
  -26.2070   13.0980  -12.3400 B   0  0  1  0  0  0  0  0  0  0  0  0
  -27.1570   13.4890  -11.2850 O   0  0  0  0  0  0  0  0  0  0  0  0
  -26.7960   13.7030  -13.5180 O   0  0  0  0  0  0  0  0  0  0  0  0
  -26.4050   11.6420  -12.5280 O   0  0  0  0  0  0  0  0  0  0  0  0
  -23.7050   17.0870   -9.7150 H   0  0  0  0  0  0  0  0  0  0  0  0
  -22.0030   17.6970   -9.6550 H   0  0  0  0  0  0  0  0  0  0  0  0
  -22.4620   14.9720  -12.6680 H   0  0  0  0  0  0  0  0  0  0  0  0
  -22.5300   14.7750  -10.9190 H   0  0  0  0  0  0  0  0  0  0  0  0
  -24.9180   15.2270  -10.9340 H   0  0  0  0  0  0  0  0  0  0  0  0
  -24.8750   15.5490  -12.6730 H   0  0  0  0  0  0  0  0  0  0  0  0
  -24.1680   13.2020  -13.0520 H   0  0  0  0  0  0  0  0  0  0  0  0
  -24.3060   12.8970  -11.3150 H   0  0  0  0  0  0  0  0  0  0  0  0
  -20.7790   18.0270  -11.3150 H   0  0  0  0  0  0  0  0  0  0  0  0
  -24.2320   17.4790  -12.8990 H   0  0  0  0  0  0  0  0  0  0  0  0
  -22.6860   17.7840  -14.6450 H   0  0  0  0  0  0  0  0  0  0  0  0
  -22.1650   19.2490  -13.7630 H   0  0  0  0  0  0  0  0  0  0  0  0
  -20.2370   18.1330  -13.5170 H   0  0  0  0  0  0  0  0  0  0  0  0
  -20.8920   16.6640  -13.8970 H   0  0  0  0  0  0  0  0  0  0  0  0
  -26.8640   11.2810  -11.7650 H   0  0  0  0  0  0  0  0  0  0  0  0
  -26.1120   14.1370  -14.0310 H   0  0  0  0  0  0  0  0  0  0  0  0
  -28.0390   13.1970  -11.5250 H   0  0  0  0  0  0  0  0  0  0  0  0
 14  5  1  0
 14 15  1  1
 14 16  1  0
 14 17  1  0
  7  6  2  0
  7  8  1  0
  7  9  1  0
  2  9  1  6
  9 13  1  0
  9 26  1  1
 12 11  1  0
 12 13  1  0
 12 28  1  6
 12 29  1  0
 11  2  1  0
 11 10  1  0
 11 27  1  6
  1  2  1  0
  1 10  1  0
  1 18  1  1
  1 19  1  0
  2  3  1  0
  3  4  1  0
  3 20  1  6
  3 21  1  0
  4  5  1  0
  4 22  1  1
  4 23  1  0
  5 24  1  6
  5 25  1  0
 13 30  1  1
 31 13  1  0
 32 17  1  0
 33 16  1  0
 34 15  1  0
M  CHG  3   8  -1  13   1  14  -1
M  END
