6q2y
     RDKit          3D

 26 27  0  0  0  0  0  0  0  0999 V2000
   -9.2010    0.5250  -19.7470 C   0  0  0  0  0  0  0  0  0  0  0  0
   -7.5830    0.2520  -17.6540 C   0  0  0  0  0  0  0  0  0  0  0  0
   -7.2120    0.6650  -16.3210 C   0  0  0  0  0  0  0  0  0  0  0  0
   -8.0010    1.7010  -15.6010 C   0  0  0  0  0  0  0  0  0  0  0  0
   -8.7290    0.8620  -18.3360 C   0  0  0  0  0  0  0  0  0  0  0  0
   -9.5360    1.8670  -17.6690 C   0  0  0  0  0  0  0  0  0  0  0  0
   -9.1180    2.2460  -16.3200 C   0  0  0  0  0  0  0  0  0  0  0  0
   -9.9250    3.2230  -15.4880 C   0  0  0  0  0  0  0  0  0  0  0  0
   -9.0920    3.3010  -14.2230 C   0  0  0  0  0  0  0  0  0  0  0  0
   -9.3450    4.4010  -13.0900 B   0  0  0  0  0  4  0  0  0  0  0  0
   -8.6420    5.7530  -13.3840 O   0  0  0  0  0  0  0  0  0  0  0  0
   -8.7690    3.9420  -11.7950 O   0  0  0  0  0  0  0  0  0  0  0  0
  -10.7460    4.8000  -12.8510 O   0  0  0  0  0  1  0  0  0  0  0  0
   -7.7830    2.2720  -14.0860 S   0  0  0  0  0  0  0  0  0  0  0  0
   -9.1700   -0.8700  -20.0680 N   0  0  0  0  0  4  0  0  0  0  0  0
   -8.5610    1.0510  -20.4550 H   0  0  0  0  0  0  0  0  0  0  0  0
  -10.2220    0.8860  -19.8670 H   0  0  0  0  0  0  0  0  0  0  0  0
   -7.0100   -0.5160  -18.1540 H   0  0  0  0  0  0  0  0  0  0  0  0
   -6.3540    0.2170  -15.8410 H   0  0  0  0  0  0  0  0  0  0  0  0
  -10.3980    2.3120  -18.1440 H   0  0  0  0  0  0  0  0  0  0  0  0
  -10.8480    3.7300  -15.7320 H   0  0  0  0  0  0  0  0  0  0  0  0
   -8.7410   -1.3800  -19.3090 H   0  0  0  0  0  0  0  0  0  0  0  0
   -8.6330   -1.0100  -20.9120 H   0  0  0  0  0  0  0  0  0  0  0  0
  -10.1130   -1.2050  -20.2080 H   0  0  0  0  0  0  0  0  0  0  0  0
   -8.3740    5.7800  -14.3050 H   0  0  0  0  0  0  0  0  0  0  0  0
   -8.3320    4.6780  -11.3600 H   0  0  0  0  0  0  0  0  0  0  0  0
 10  9  1  0
 10 11  1  0
 10 12  1  0
 10 13  1  0
  5  1  1  0
  5  2  2  0
  5  6  1  0
  6  7  2  0
  6 20  1  0
  7  4  1  0
  7  8  1  0
  8  9  2  0
  8 21  1  0
  9 14  1  0
  4  3  2  0
  4 14  1  0
  3  2  1  0
  3 19  1  0
  2 18  1  0
  1 15  1  0
  1 16  1  0
  1 17  1  0
 25 11  1  0
 26 12  1  0
 15 22  1  0
 23 15  1  0
 24 15  1  0
M  CHG  3  10  -1  13  -1  15   1
M  END
