3E6V_ABH_ligand
     RDKit          3D

 28 27  0  0  0  0  0  0  0  0999 V2000
  -21.4240   17.3920  -13.5920 N   0  0  0  0  0  4  0  0  0  0  0  0
  -21.4040   17.2730  -12.1160 C   0  0  2  0  0  0  0  0  0  0  0  0
  -20.2480   16.2690  -11.7900 C   0  0  0  0  0  0  0  0  0  0  0  0
  -19.9140   15.9030  -10.7000 O   0  0  0  0  0  0  0  0  0  0  0  0
  -19.6210   15.8260  -12.9110 O   0  0  0  0  0  1  0  0  0  0  0  0
  -22.7880   16.7600  -11.6030 C   0  0  0  0  0  0  0  0  0  0  0  0
  -23.0730   15.2770  -11.8030 C   0  0  0  0  0  0  0  0  0  0  0  0
  -24.5400   14.9110  -11.8800 C   0  0  0  0  0  0  0  0  0  0  0  0
  -24.7280   13.4280  -12.2060 C   0  0  0  0  0  0  0  0  0  0  0  0
  -26.2130   12.8940  -12.3390 B   0  0  0  0  0  4  0  0  0  0  0  0
  -26.2320   11.4640  -12.5470 O   0  0  0  0  0  0  0  0  0  0  0  0
  -26.8470   13.4620  -13.4990 O   0  0  0  0  0  0  0  0  0  0  0  0
  -27.0570   13.1740  -11.2060 O   0  0  0  0  0  0  0  0  0  0  0  0
  -21.1840   18.2440  -11.6710 H   0  0  0  0  0  0  0  0  0  0  0  0
  -23.5640   17.3210  -12.1250 H   0  0  0  0  0  0  0  0  0  0  0  0
  -22.8630   16.9830  -10.5390 H   0  0  0  0  0  0  0  0  0  0  0  0
  -22.6330   14.7330  -10.9670 H   0  0  0  0  0  0  0  0  0  0  0  0
  -22.5860   14.9520  -12.7220 H   0  0  0  0  0  0  0  0  0  0  0  0
  -25.0100   15.1260  -10.9210 H   0  0  0  0  0  0  0  0  0  0  0  0
  -25.0180   15.5110  -12.6550 H   0  0  0  0  0  0  0  0  0  0  0  0
  -24.2440   12.8560  -11.4140 H   0  0  0  0  0  0  0  0  0  0  0  0
  -24.2070   13.2190  -13.1400 H   0  0  0  0  0  0  0  0  0  0  0  0
  -25.3340   11.1470  -12.6740 H   0  0  0  0  0  0  0  0  0  0  0  0
  -21.4030   16.4710  -14.0040 H   0  0  0  0  0  0  0  0  0  0  0  0
  -20.6170   17.9170  -13.8980 H   0  0  0  0  0  0  0  0  0  0  0  0
  -22.2660   17.8700  -13.8800 H   0  0  0  0  0  0  0  0  0  0  0  0
  -26.1940   13.9350  -14.0210 H   0  0  0  0  0  0  0  0  0  0  0  0
  -27.9350   12.8200  -11.3650 H   0  0  0  0  0  0  0  0  0  0  0  0
 10  9  1  0
 10 11  1  0
 10 12  1  0
 10 13  1  0
  3  2  1  0
  3  4  2  0
  3  5  1  0
  2 14  1  1
  2  1  1  0
  2  6  1  0
  6 15  1  0
  6 16  1  0
  6  7  1  0
  8  9  1  0
  8 19  1  0
  8 20  1  0
  8  7  1  0
  9 21  1  0
  9 22  1  0
  7 17  1  0
  7 18  1  0
  1 24  1  0
 27 12  1  0
 23 11  1  0
 25  1  1  0
 28 13  1  0
 26  1  1  0
M  CHG  3   1   1   5  -1  10  -1
M  END
