1D3V_ABH_ligand
     RDKit          3D

 28 27  0  0  0  0  0  0  0  0999 V2000
   23.0800   12.3040   -3.9240 N   0  0  1  0  0  0  0  0  0  0  0  0
   22.9300   12.2520   -5.4030 C   0  0  2  0  0  0  0  0  0  0  0  0
   23.8930   13.3440   -5.9190 C   0  0  0  0  0  0  0  0  0  0  0  0
   24.1780   13.5660   -7.0630 O   0  0  0  0  0  0  0  0  0  0  0  0
   24.3900   14.0690   -4.8950 O   0  0  0  0  0  0  0  0  0  0  0  0
   21.4730   12.6040   -5.7980 C   0  0  2  0  0  0  0  0  0  0  0  0
   20.9930   13.9780   -5.3450 C   0  0  1  0  0  0  0  0  0  0  0  0
   19.4760   14.1420   -5.3740 C   0  0  2  0  0  0  0  0  0  0  0  0
   19.0450   15.6080   -5.3240 C   0  0  1  0  0  0  0  0  0  0  0  0
   17.5050   15.9030   -5.1250 B   0  0  2  0  0  0  0  0  0  0  0  0
   17.3020   17.3120   -4.8480 O   0  0  0  0  0  0  0  0  0  0  0  0
   17.0110   15.1980   -3.9540 O   0  0  0  0  0  0  0  0  0  0  0  0
   16.6620   15.5370   -6.2480 O   0  0  0  0  0  0  0  0  0  0  0  0
   23.2110   11.2720   -5.7880 H   0  0  0  0  0  0  0  0  0  0  0  0
   20.8140   11.8550   -5.3590 H   0  0  0  0  0  0  0  0  0  0  0  0
   21.3860   12.5480   -6.8830 H   0  0  0  0  0  0  0  0  0  0  0  0
   21.3370   14.1420   -4.3240 H   0  0  0  0  0  0  0  0  0  0  0  0
   21.4390   14.7350   -5.9900 H   0  0  0  0  0  0  0  0  0  0  0  0
   19.0520   13.6230   -4.5140 H   0  0  0  0  0  0  0  0  0  0  0  0
   19.0880   13.6900   -6.2870 H   0  0  0  0  0  0  0  0  0  0  0  0
   19.5780   16.0780   -4.4980 H   0  0  0  0  0  0  0  0  0  0  0  0
   19.3650   16.0870   -6.2490 H   0  0  0  0  0  0  0  0  0  0  0  0
   18.1490   17.7290   -4.6720 H   0  0  0  0  0  0  0  0  0  0  0  0
   22.2520   11.9240   -3.4880 H   0  0  0  0  0  0  0  0  0  0  0  0
   23.8850   11.7610   -3.6470 H   0  0  0  0  0  0  0  0  0  0  0  0
   23.2050   13.2630   -3.6320 H   0  0  0  0  0  0  0  0  0  0  0  0
   17.7230   14.6840   -3.5660 H   0  0  0  0  0  0  0  0  0  0  0  0
   15.7480   15.7490   -6.0450 H   0  0  0  0  0  0  0  0  0  0  0  0
 10  9  1  0
 10 11  1  1
 10 12  1  0
 10 13  1  0
  3  2  1  0
  3  4  2  0
  3  5  1  0
  2 14  1  6
  2  1  1  0
  2  6  1  0
  6 15  1  1
  6 16  1  0
  6  7  1  0
  8  9  1  0
  8 19  1  1
  8 20  1  0
  8  7  1  0
  9 21  1  1
  9 22  1  0
  7 17  1  1
  7 18  1  0
  1 24  1  1
 27 12  1  0
 23 11  1  0
 25  1  1  0
 28 13  1  0
 26  1  1  0
M  CHG  2   1   1  10  -1
M  END
