4ixv
     RDKit          3D

 57 58  0  0  0  0  0  0  0  0999 V2000
   38.3560   83.0660   80.1020 Cl  0  0  0  0  0  0  0  0  0  0  0  0
   36.9170   83.5110   79.1150 C   0  0  0  0  0  0  0  0  0  0  0  0
   36.7640   84.8220   78.6580 C   0  0  0  0  0  0  0  0  0  0  0  0
   35.6520   85.1700   77.8960 C   0  0  0  0  0  0  0  0  0  0  0  0
   35.9520   82.5490   78.8020 C   0  0  0  0  0  0  0  0  0  0  0  0
   34.8450   82.9010   78.0330 C   0  0  0  0  0  0  0  0  0  0  0  0
   34.6850   84.2120   77.5820 C   0  0  0  0  0  0  0  0  0  0  0  0
   33.4750   84.5760   76.7380 C   0  0  0  0  0  0  0  0  0  0  0  0
   33.8610   85.5440   75.6880 N   0  0  2  0  0  4  0  0  0  0  0  0
   32.6120   86.1380   75.1660 C   0  0  0  0  0  0  0  0  0  0  0  0
   32.8170   87.0500   73.9540 C   0  0  0  0  0  0  0  0  0  0  0  0
   34.6450   84.8420   74.6440 C   0  0  0  0  0  0  0  0  0  0  0  0
   34.1850   85.1400   73.2150 C   0  0  0  0  0  0  0  0  0  0  0  0
   34.0080   86.6460   73.0960 C   0  0  1  0  0  0  0  0  0  0  0  0
   33.9240   87.1630   71.6520 C   0  0  2  0  0  0  0  0  0  0  0  0
   34.1560   88.6470   71.7510 C   0  0  0  0  0  0  0  0  0  0  0  0
   35.2020   89.0440   72.3060 O   0  0  0  0  0  0  0  0  0  0  0  0
   33.2670   89.4160   71.3250 O   0  0  0  0  0  1  0  0  0  0  0  0
   32.5850   86.9830   71.0730 N   0  0  0  0  0  4  0  0  0  0  0  0
   34.9860   86.4670   70.8060 C   0  0  0  0  0  0  0  0  0  0  0  0
   35.1640   87.0210   69.4090 C   0  0  0  0  0  0  0  0  0  0  0  0
   36.4800   86.5360   68.7750 C   0  0  0  0  0  0  0  0  0  0  0  0
   36.8390   87.4140   67.5680 C   0  0  0  0  0  0  0  0  0  0  0  0
   37.3620   86.5410   66.3470 B   0  0  0  0  0  4  0  0  0  0  0  0
   37.8930   87.6200   65.3670 O   0  0  0  0  0  0  0  0  0  0  0  0
   36.3310   85.8890   65.4530 O   0  0  0  0  0  0  0  0  0  0  0  0
   38.5950   85.7150   66.6010 O   0  0  0  0  0  0  0  0  0  0  0  0
   37.5100   85.5660   78.8960 H   0  0  0  0  0  0  0  0  0  0  0  0
   35.5360   86.1860   77.5470 H   0  0  0  0  0  0  0  0  0  0  0  0
   36.0640   81.5340   79.1550 H   0  0  0  0  0  0  0  0  0  0  0  0
   34.1050   82.1550   77.7840 H   0  0  0  0  0  0  0  0  0  0  0  0
   33.0790   83.6750   76.2690 H   0  0  0  0  0  0  0  0  0  0  0  0
   32.7100   85.0190   77.3740 H   0  0  0  0  0  0  0  0  0  0  0  0
   34.4290   86.2710   76.0990 H   0  0  0  0  0  0  0  0  0  0  0  0
   32.1520   86.7240   75.9620 H   0  0  0  0  0  0  0  0  0  0  0  0
   31.9320   85.3340   74.8870 H   0  0  0  0  0  0  0  0  0  0  0  0
   32.9750   88.0680   74.3090 H   0  0  0  0  0  0  0  0  0  0  0  0
   31.9160   87.0270   73.3400 H   0  0  0  0  0  0  0  0  0  0  0  0
   34.5600   83.7700   74.8150 H   0  0  0  0  0  0  0  0  0  0  0  0
   35.6920   85.1290   74.7400 H   0  0  0  0  0  0  0  0  0  0  0  0
   33.2400   84.6370   73.0160 H   0  0  0  0  0  0  0  0  0  0  0  0
   34.9400   84.8000   72.5060 H   0  0  0  0  0  0  0  0  0  0  0  0
   34.8890   87.1030   73.5440 H   0  0  0  0  0  0  0  0  0  0  0  0
   35.9410   86.5530   71.3260 H   0  0  0  0  0  0  0  0  0  0  0  0
   34.7280   85.4110   70.7290 H   0  0  0  0  0  0  0  0  0  0  0  0
   34.3300   86.6920   68.7890 H   0  0  0  0  0  0  0  0  0  0  0  0
   35.1690   88.1100   69.4540 H   0  0  0  0  0  0  0  0  0  0  0  0
   37.2790   86.5950   69.5140 H   0  0  0  0  0  0  0  0  0  0  0  0
   36.3640   85.5030   68.4490 H   0  0  0  0  0  0  0  0  0  0  0  0
   37.6200   88.1160   67.8610 H   0  0  0  0  0  0  0  0  0  0  0  0
   35.9550   87.9710   67.2570 H   0  0  0  0  0  0  0  0  0  0  0  0
   31.8850   87.2030   71.7670 H   0  0  0  0  0  0  0  0  0  0  0  0
   32.4760   87.5970   70.2780 H   0  0  0  0  0  0  0  0  0  0  0  0
   32.4730   86.0240   70.7750 H   0  0  0  0  0  0  0  0  0  0  0  0
   37.5650   88.4820   65.6340 H   0  0  0  0  0  0  0  0  0  0  0  0
   35.4520   86.1600   65.7290 H   0  0  0  0  0  0  0  0  0  0  0  0
   38.4240   85.0970   67.3150 H   0  0  0  0  0  0  0  0  0  0  0  0
 24 23  1  0
 24 25  1  0
 24 26  1  0
 24 27  1  0
 15 16  1  0
 16 17  2  0
 16 18  1  0
 14 11  1  0
 14 13  1  0
 14 15  1  0
 14 43  1  1
 11 10  1  0
 11 37  1  0
 11 38  1  0
 10  9  1  0
 10 35  1  0
 10 36  1  0
 12  9  1  0
 12 13  1  0
 12 39  1  0
 12 40  1  0
 13 41  1  0
 13 42  1  0
  8  7  1  0
  8  9  1  0
  8 32  1  0
  8 33  1  0
  7  4  2  0
  7  6  1  0
  4  3  1  0
  4 29  1  0
  3  2  2  0
  3 28  1  0
  2  1  1  0
  2  5  1  0
  5  6  2  0
  5 30  1  0
  6 31  1  0
 15 19  1  0
 15 20  1  6
 20 21  1  0
 20 44  1  0
 20 45  1  0
 21 22  1  0
 21 46  1  0
 21 47  1  0
 22 23  1  0
 22 48  1  0
 22 49  1  0
 23 50  1  0
 23 51  1  0
 57 27  1  0
 56 26  1  0
  9 34  1  1
 55 25  1  0
 19 52  1  0
 53 19  1  0
 54 19  1  0
M  CHG  4   9   1  18  -1  19   1  24  -1
M  END
