5xra_ligand2
     RDKit          3D

 65 67  0  0  0  0  0  0  0  0999 V2000
   41.5660   29.6600  320.4880 C   0  0  0  0  0  0  0  0  0  0  0  0
   41.1090   28.7980  321.4430 O   0  0  0  0  0  0  0  0  0  0  0  0
   40.8470   29.7940  319.3090 C   0  0  0  0  0  0  0  0  0  0  0  0
   44.3320   31.9150  319.9540 O   0  0  0  0  0  0  0  0  0  0  0  0
   41.2980   30.6620  318.3290 C   0  0  0  0  0  0  0  0  0  0  0  0
   42.4440   31.4000  318.5820 C   0  0  0  0  0  0  0  0  0  0  0  0
   42.7540   30.3890  320.7000 C   0  0  0  0  0  0  0  0  0  0  0  0
   45.2710   31.6460  321.0490 C   0  0  2  0  0  0  0  0  0  0  0  0
   43.3010   31.1060  319.6190 C   0  0  0  0  0  0  0  0  0  0  0  0
   44.4210   31.5030  322.2050 C   0  0  2  0  0  0  0  0  0  0  0  0
   45.2720   30.9480  323.3190 C   0  0  2  0  0  0  0  0  0  0  0  0
   44.5260   30.7620  324.4750 C   0  0  0  0  0  0  0  0  0  0  0  0
   43.1530   30.5830  324.3090 C   0  0  0  0  0  0  0  0  0  0  0  0
   42.5820   30.5950  323.0230 C   0  0  2  0  0  0  0  0  0  0  0  0
   43.5530   30.3120  321.8510 C   0  0  1  0  0  0  0  0  0  0  0  0
   46.1960   32.8520  321.2190 C   0  0  1  0  0  0  0  0  0  0  0  0
   46.1020   30.3960  320.7370 C   0  0  1  0  0  0  0  0  0  0  0  0
   42.3430   30.3880  325.4240 C   0  0  1  0  0  0  0  0  0  0  0  0
   40.6100   30.8160  317.1200 C   0  0  2  0  0  0  0  0  0  0  0  0
   40.4320   32.2870  316.7280 C   0  0  2  0  0  0  0  0  0  0  0  0
   39.2230   30.1860  317.2430 C   0  0  1  0  0  0  0  0  0  0  0  0
   41.3790   30.0880  316.0200 C   0  0  1  0  0  0  0  0  0  0  0  0
   39.5890   33.0350  317.7630 C   0  0  2  0  0  0  0  0  0  0  0  0
   39.4210   34.4900  317.3180 C   0  0  2  0  0  0  0  0  0  0  0  0
   38.5460   35.2350  318.3340 C   0  0  2  0  0  0  0  0  0  0  0  0
   38.3670   36.6860  317.8830 C   0  0  2  0  0  0  0  0  0  0  0  0
   37.4700   37.4590  318.8590 C   0  0  2  0  0  0  0  0  0  0  0  0
   38.2160   37.5090  320.6530 Br  0  0  0  0  0  0  0  0  0  0  0  0
   40.2320   28.4900  321.2030 H   0  0  0  0  0  0  0  0  0  0  0  0
   39.9330   29.2200  319.1550 H   0  0  0  0  0  0  0  0  0  0  0  0
   42.6760   32.2450  317.9330 H   0  0  0  0  0  0  0  0  0  0  0  0
   43.9100   32.4300  322.4650 H   0  0  0  0  0  0  0  0  0  0  0  0
   46.0690   31.6610  323.5340 H   0  0  0  0  0  0  0  0  0  0  0  0
   45.6890   29.9900  323.0070 H   0  0  0  0  0  0  0  0  0  0  0  0
   44.9890   30.7570  325.4620 H   0  0  0  0  0  0  0  0  0  0  0  0
   42.2230   31.6120  322.8690 H   0  0  0  0  0  0  0  0  0  0  0  0
   41.7970   29.8390  322.9980 H   0  0  0  0  0  0  0  0  0  0  0  0
   44.1140   29.3890  321.6980 H   0  0  0  0  0  0  0  0  0  0  0  0
   45.5990   33.7390  321.4310 H   0  0  0  0  0  0  0  0  0  0  0  0
   46.8820   32.6710  322.0450 H   0  0  0  0  0  0  0  0  0  0  0  0
   46.7640   33.0070  320.3010 H   0  0  0  0  0  0  0  0  0  0  0  0
   45.4370   29.5420  320.6010 H   0  0  0  0  0  0  0  0  0  0  0  0
   46.6750   30.5580  319.8230 H   0  0  0  0  0  0  0  0  0  0  0  0
   46.7840   30.1960  321.5630 H   0  0  0  0  0  0  0  0  0  0  0  0
   42.6200   29.4560  325.9160 H   0  0  0  0  0  0  0  0  0  0  0  0
   42.4740   31.2180  326.1180 H   0  0  0  0  0  0  0  0  0  0  0  0
   41.3000   30.3360  325.1110 H   0  0  0  0  0  0  0  0  0  0  0  0
   39.9180   32.3280  315.7680 H   0  0  0  0  0  0  0  0  0  0  0  0
   41.4130   32.7580  316.6580 H   0  0  0  0  0  0  0  0  0  0  0  0
   39.3110   29.2050  317.7110 H   0  0  0  0  0  0  0  0  0  0  0  0
   38.5870   30.8250  317.8550 H   0  0  0  0  0  0  0  0  0  0  0  0
   38.7840   30.0780  316.2520 H   0  0  0  0  0  0  0  0  0  0  0  0
   40.9720   29.0850  315.8960 H   0  0  0  0  0  0  0  0  0  0  0  0
   41.2830   30.6380  315.0840 H   0  0  0  0  0  0  0  0  0  0  0  0
   42.4310   30.0210  316.2960 H   0  0  0  0  0  0  0  0  0  0  0  0
   40.0880   33.0050  318.7320 H   0  0  0  0  0  0  0  0  0  0  0  0
   38.6110   32.5630  317.8470 H   0  0  0  0  0  0  0  0  0  0  0  0
   38.9440   34.5180  316.3380 H   0  0  0  0  0  0  0  0  0  0  0  0
   40.3980   34.9690  317.2590 H   0  0  0  0  0  0  0  0  0  0  0  0
   39.0270   35.2150  319.3110 H   0  0  0  0  0  0  0  0  0  0  0  0
   37.5720   34.7510  318.4000 H   0  0  0  0  0  0  0  0  0  0  0  0
   37.8930   36.6880  316.9010 H   0  0  0  0  0  0  0  0  0  0  0  0
   39.3430   37.1690  317.8360 H   0  0  0  0  0  0  0  0  0  0  0  0
   36.5100   36.9470  318.9090 H   0  0  0  0  0  0  0  0  0  0  0  0
   37.3550   38.4810  318.4970 H   0  0  0  0  0  0  0  0  0  0  0  0
 28 27  1  0
  1  2  1  0
  1  3  2  0
  1  7  1  0
 12 11  1  0
 12 13  2  0
 12 35  1  0
 13 14  1  0
 13 18  1  0
 14 15  1  0
 14 36  1  6
 14 37  1  0
 15  7  1  0
 15 10  1  0
 15 38  1  1
 16  8  1  0
 16 39  1  1
 16 40  1  0
 16 41  1  0
 17  8  1  0
 17 42  1  6
 17 43  1  0
 17 44  1  0
 18 45  1  1
 18 46  1  0
 18 47  1  0
 19  5  1  1
 19 20  1  0
 19 21  1  0
 19 22  1  0
 20 23  1  0
 20 48  1  6
 20 49  1  0
 21 50  1  1
 21 51  1  0
 21 52  1  0
  3  5  1  0
  3 30  1  0
 22 53  1  6
 22 54  1  0
 22 55  1  0
 23 24  1  0
 23 56  1  1
 23 57  1  0
 24 25  1  0
 24 58  1  6
 24 59  1  0
 25 26  1  0
 25 60  1  1
 25 61  1  0
 26 27  1  0
 26 62  1  6
 26 63  1  0
 27 64  1  1
 27 65  1  0
  5  6  2  0
  6  9  1  0
  6 31  1  0
  7  9  2  0
  8  4  1  6
  8 10  1  0
  9  4  1  0
 10 11  1  0
 10 32  1  1
 11 33  1  1
 11 34  1  0
 29  2  1  0
M  END
