7pui_86Z_ligand
     RDKit          3D

 15 15  0  0  0  0  0  0  0  0999 V2000
  -18.0190  -16.9570  -15.3780 B   0  0  0  0  0  0  0  0  0  0  0  0
  -18.5590  -17.9900  -16.4200 C   0  0  0  0  0  0  0  0  0  0  0  0
  -19.0130  -19.2440  -16.0170 C   0  0  0  0  0  0  0  0  0  0  0  0
  -19.4940  -20.1640  -16.9730 C   0  0  0  0  0  0  0  0  0  0  0  0
  -19.5010  -19.7810  -18.3290 C   0  0  0  0  0  0  0  0  0  0  0  0
  -19.0170  -18.5240  -18.6310 C   0  0  0  0  0  0  0  0  0  0  0  0
  -18.5460  -17.6140  -17.7350 N   0  0  0  0  0  0  0  0  0  0  0  0
  -16.7880  -17.2200  -14.8210 O   0  0  0  0  0  0  0  0  0  0  0  0
  -18.5890  -15.7190  -15.2680 O   0  0  0  0  0  0  0  0  0  0  0  0
  -18.9970  -19.5130  -14.9710 H   0  0  0  0  0  0  0  0  0  0  0  0
  -19.8480  -21.1390  -16.6720 H   0  0  0  0  0  0  0  0  0  0  0  0
  -19.8690  -20.4430  -19.0990 H   0  0  0  0  0  0  0  0  0  0  0  0
  -19.0120  -18.2370  -19.6720 H   0  0  0  0  0  0  0  0  0  0  0  0
  -16.1840  -16.5020  -15.0260 H   0  0  0  0  0  0  0  0  0  0  0  0
  -18.7720  -15.5320  -14.3440 H   0  0  0  0  0  0  0  0  0  0  0  0
  1  2  1  0
  1  8  1  0
  1  9  1  0
  2  3  2  0
  2  7  1  0
  3  4  1  0
  3 10  1  0
  4  5  2  0
  4 11  1  0
  5  6  1  0
  5 12  1  0
  6  7  2  0
  6 13  1  0
 14  8  1  0
 15  9  1  0
M  END
