6rvf_KKH_ligand
     RDKit          3D

 35 37  0  0  0  0  0  0  0  0999 V2000
   -6.3610    4.3990   15.2560 C   0  0  0  0  0  0  0  0  0  0  0  0
   -5.1980    4.9570   14.7300 C   0  0  0  0  0  0  0  0  0  0  0  0
   -4.0300    4.2180   14.7410 C   0  0  0  0  0  0  0  0  0  0  0  0
   -4.0270    2.9280   15.2730 C   0  0  0  0  0  0  0  0  0  0  0  0
   -5.1870    2.3370   15.8060 C   0  0  0  0  0  0  0  0  0  0  0  0
   -6.3530    3.1320   15.7820 C   0  0  0  0  0  0  0  0  0  0  0  0
   -7.4760    2.3370   16.3810 C   0  0  1  0  0  0  0  0  0  0  0  0
   -7.0150    0.9970   16.3640 O   0  0  0  0  0  0  0  0  0  0  0  0
   -5.1980    0.8050   17.9020 O   0  0  0  0  0  0  0  0  0  0  0  0
    0.9540    9.1430   12.6190 C   0  0  0  0  0  0  0  0  0  0  0  0
    0.2450    7.9430   12.6440 C   0  0  0  0  0  0  0  0  0  0  0  0
    0.7820   10.0700   13.6260 C   0  0  0  0  0  0  0  0  0  0  0  0
   -0.0970    9.8120   14.6560 C   0  0  0  0  0  0  0  0  0  0  0  0
   -0.8090    8.6160   14.6890 C   0  0  0  0  0  0  0  0  0  0  0  0
   -0.6250    7.6810   13.6750 C   0  0  0  0  0  0  0  0  0  0  0  0
   -3.2320    7.0080   14.7740 O   0  0  0  0  0  0  0  0  0  0  0  0
   -2.8290    4.8050   14.2630 N   0  0  0  0  0  0  0  0  0  0  0  0
   -1.2720    6.4040   13.7720 N   0  0  0  0  0  0  0  0  0  0  0  0
   -2.4900    6.1370   14.3040 C   0  0  0  0  0  0  0  0  0  0  0  0
   -5.5450    0.9260   16.4820 B   0  0  2  0  0  0  0  0  0  0  0  0
   -5.1010   -0.2920   15.7720 O   0  0  0  0  0  0  0  0  0  0  0  0
   -7.2780    4.9700   15.2510 H   0  0  0  0  0  0  0  0  0  0  0  0
   -5.2100    5.9550   14.3170 H   0  0  0  0  0  0  0  0  0  0  0  0
   -3.1040    2.3660   15.2770 H   0  0  0  0  0  0  0  0  0  0  0  0
   -7.6750    2.6630   17.4030 H   0  0  0  0  0  0  0  0  0  0  0  0
   -8.3750    2.4350   15.7730 H   0  0  0  0  0  0  0  0  0  0  0  0
    1.6390    9.3470   11.8100 H   0  0  0  0  0  0  0  0  0  0  0  0
    0.3790    7.2190   11.8530 H   0  0  0  0  0  0  0  0  0  0  0  0
    1.3350   10.9970   13.6070 H   0  0  0  0  0  0  0  0  0  0  0  0
   -0.2330   10.5400   15.4410 H   0  0  0  0  0  0  0  0  0  0  0  0
   -1.4980    8.4160   15.4970 H   0  0  0  0  0  0  0  0  0  0  0  0
   -2.1540    4.1790   13.8480 H   0  0  0  0  0  0  0  0  0  0  0  0
   -0.7620    5.6150   13.4020 H   0  0  0  0  0  0  0  0  0  0  0  0
   -4.5090   -0.7940   16.3370 H   0  0  0  0  0  0  0  0  0  0  0  0
   -5.7380    0.1230   18.3060 H   0  0  0  0  0  0  0  0  0  0  0  0
 20  5  1  0
 20  8  1  0
 20  9  1  1
 20 21  1  0
  5  4  1  0
  5  6  2  0
 11 10  2  0
 11 15  1  0
 11 28  1  0
 10 12  1  0
 10 27  1  0
 12 13  2  0
 12 29  1  0
 13 14  1  0
 13 30  1  0
 14 15  2  0
 14 31  1  0
  4  3  2  0
  4 24  1  0
  3  2  1  0
  3 17  1  0
  2  1  2  0
  2 23  1  0
  1  6  1  0
  1 22  1  0
  6  7  1  0
  7  8  1  0
  7 25  1  1
  7 26  1  0
 19 16  2  0
 19 17  1  0
 19 18  1  0
 15 18  1  0
 32 17  1  0
 33 18  1  0
 34 21  1  0
 35  9  1  0
M  CHG  1  20  -1
M  END
