6ubo
     RDKit          3D

 42 44  0  0  0  0  0  0  0  0999 V2000
    3.0160   16.5240   89.3600 F   0  0  0  0  0  0  0  0  0  0  0  0
    2.6740   15.2980   89.9940 B   0  0  0  0  0  4  0  0  0  0  0  0
    1.4040   15.4010   90.7080 F   0  0  0  0  0  0  0  0  0  0  0  0
    3.7300   15.0560   91.1760 N   0  0  0  0  0  4  0  0  0  0  0  0
    4.2170   13.8230   91.4530 C   0  0  0  0  0  0  0  0  0  0  0  0
    4.0320   12.6980   90.5880 C   0  0  0  0  0  0  0  0  0  0  0  0
    3.2580   12.8110   89.3980 C   0  0  0  0  0  0  0  0  0  0  0  0
    3.2420   11.6960   88.5310 C   0  0  0  0  0  0  0  0  0  0  0  0
    4.9500   13.9350   92.7000 C   0  0  0  0  0  0  0  0  0  0  0  0
    4.9210   15.2140   93.0150 N   0  0  0  0  0  0  0  0  0  0  0  0
    5.5730   15.7530   94.2270 C   0  0  0  0  0  0  0  0  0  0  0  0
    4.1640   15.8700   92.1290 C   0  0  0  0  0  0  0  0  0  0  0  0
    3.8150   17.3170   92.3350 C   0  0  0  0  0  3  0  0  0  0  0  0
    5.6460   13.0310   93.2520 O   0  0  0  0  0  0  0  0  0  0  0  0
    2.7340   14.0840   89.0230 C   0  0  0  0  0  0  0  0  0  0  0  0
    2.1050   14.1640   87.7930 C   0  0  0  0  0  0  0  0  0  0  0  0
    2.0240   13.0420   86.9290 C   0  0  0  0  0  0  0  0  0  0  0  0
    2.6060   11.8280   87.2860 C   0  0  0  0  0  0  0  0  0  0  0  0
    1.3680   13.1740   85.6600 N   0  0  0  0  0  0  0  0  0  0  0  0
    1.4280   12.1390   84.6350 C   0  0  0  0  0  0  0  0  0  0  0  0
    2.8130   12.0020   84.0100 C   0  0  0  0  0  0  0  0  0  0  0  0
    0.6450   14.4090   85.2950 C   0  0  0  0  0  0  0  0  0  0  0  0
    1.7380   15.3470   84.8340 C   0  0  0  0  0  0  0  0  0  0  0  0
    4.4850   11.7510   90.8410 H   0  0  0  0  0  0  0  0  0  0  0  0
    3.7070   10.7650   88.8190 H   0  0  0  0  0  0  0  0  0  0  0  0
    1.6660   15.1010   87.4840 H   0  0  0  0  0  0  0  0  0  0  0  0
    2.5680   10.9900   86.6060 H   0  0  0  0  0  0  0  0  0  0  0  0
    1.1550   11.1860   85.0870 H   0  0  0  0  0  0  0  0  0  0  0  0
    0.7090   12.3770   83.8510 H   0  0  0  0  0  0  0  0  0  0  0  0
   -0.0670   14.2190   84.4920 H   0  0  0  0  0  0  0  0  0  0  0  0
    0.1340   14.8210   86.1650 H   0  0  0  0  0  0  0  0  0  0  0  0
    3.1670   17.8220   91.6330 H   0  0  0  0  0  0  0  0  0  0  0  0
    4.2120   17.8520   93.1850 H   0  0  0  0  0  0  0  0  0  0  0  0
    6.1450   14.9630   94.7140 H   0  0  0  0  0  0  0  0  0  0  0  0
    6.2420   16.5670   93.9480 H   0  0  0  0  0  0  0  0  0  0  0  0
    4.8130   16.1270   94.9130 H   0  0  0  0  0  0  0  0  0  0  0  0
    3.2010   12.9910   83.7650 H   0  0  0  0  0  0  0  0  0  0  0  0
    3.4840   11.5140   84.7170 H   0  0  0  0  0  0  0  0  0  0  0  0
    2.7440   11.4030   83.1020 H   0  0  0  0  0  0  0  0  0  0  0  0
    1.2990   16.3000   84.5390 H   0  0  0  0  0  0  0  0  0  0  0  0
    2.2580   14.9080   83.9830 H   0  0  0  0  0  0  0  0  0  0  0  0
    2.4450   15.5090   85.6480 H   0  0  0  0  0  0  0  0  0  0  0  0
  2  1  1  0
  2  3  1  0
  2  4  1  0
  2 15  1  0
 18  8  2  0
 18 17  1  0
 18 27  1  0
 23 22  1  0
 23 40  1  0
 23 41  1  0
 23 42  1  0
 21 20  1  0
 21 37  1  0
 21 38  1  0
 21 39  1  0
  6  5  2  0
  6  7  1  0
  6 24  1  0
  5  4  1  0
  5  9  1  0
  9 10  1  0
  9 14  2  0
 13 12  1  0
 13 32  1  0
 13 33  1  0
 11 10  1  0
 11 34  1  0
 11 35  1  0
 11 36  1  0
  8  7  1  0
  8 25  1  0
  7 15  2  0
 15 16  1  0
 16 17  2  0
 16 26  1  0
 17 19  1  0
 22 19  1  0
 22 30  1  0
 22 31  1  0
 20 19  1  0
 20 28  1  0
 20 29  1  0
 12  4  2  0
 12 10  1  0
M  CHG  3   2  -1   4   1  13  -1
M  END
