4I06_X8A_ligand
     RDKit          3D

 53 53  0  0  0  0  0  0  0  0999 V2000
   35.2500   88.7840   72.5170 O   0  0  0  0  0  0  0  0  0  0  0  0
   34.2070   88.4500   71.9030 C   0  0  0  0  0  0  0  0  0  0  0  0
   33.3880   89.3040   71.4920 O   0  0  0  0  0  1  0  0  0  0  0  0
   33.9070   86.9830   71.6410 C   0  0  1  0  0  0  0  0  0  0  0  0
   32.5770   86.8620   71.0370 N   0  0  0  0  0  4  0  0  0  0  0  0
   32.1380   85.6420   70.3580 C   0  0  0  0  0  0  0  0  0  0  0  0
   34.9830   86.3640   70.7490 C   0  0  0  0  0  0  0  0  0  0  0  0
   35.3990   87.1860   69.5290 C   0  0  0  0  0  0  0  0  0  0  0  0
   36.4070   86.4460   68.6390 C   0  0  0  0  0  0  0  0  0  0  0  0
   36.8790   87.3810   67.5120 C   0  0  0  0  0  0  0  0  0  0  0  0
   37.2840   86.7000   66.1360 B   0  0  0  0  0  4  0  0  0  0  0  0
   36.2880   85.8060   65.4500 O   0  0  0  0  0  0  0  0  0  0  0  0
   38.0260   87.5860   65.1720 O   0  0  0  0  0  0  0  0  0  0  0  0
   38.3750   85.6890   66.5380 O   0  0  0  0  0  0  0  0  0  0  0  0
   33.9920   86.1980   72.9590 C   0  0  0  0  0  0  0  0  0  0  0  0
   32.8800   86.4850   73.9580 C   0  0  0  0  0  0  0  0  0  0  0  0
   32.7990   85.3780   74.9310 N   0  0  0  0  0  4  0  0  0  0  0  0
   34.1070   85.1850   75.5770 C   0  0  0  0  0  0  0  0  0  0  0  0
   34.0350   84.0300   76.5700 C   0  0  0  0  0  0  0  0  0  0  0  0
   32.9810   84.3150   77.6320 C   0  0  0  0  0  0  0  0  0  0  0  0
   31.6410   84.5610   76.9490 C   0  0  0  0  0  0  0  0  0  0  0  0
   31.7730   85.7000   75.9360 C   0  0  0  0  0  0  0  0  0  0  0  0
   32.5090   87.6050   70.3550 H   0  0  0  0  0  0  0  0  0  0  0  0
   31.9020   87.0600   71.7620 H   0  0  0  0  0  0  0  0  0  0  0  0
   34.6090   85.4050   70.3920 H   0  0  0  0  0  0  0  0  0  0  0  0
   35.8690   86.1820   71.3570 H   0  0  0  0  0  0  0  0  0  0  0  0
   34.5100   87.4100   68.9390 H   0  0  0  0  0  0  0  0  0  0  0  0
   35.8440   88.1220   69.8670 H   0  0  0  0  0  0  0  0  0  0  0  0
   37.2640   86.1390   69.2390 H   0  0  0  0  0  0  0  0  0  0  0  0
   35.9320   85.5650   68.2060 H   0  0  0  0  0  0  0  0  0  0  0  0
   36.0700   88.0830   67.3070 H   0  0  0  0  0  0  0  0  0  0  0  0
   37.7360   87.9470   67.8770 H   0  0  0  0  0  0  0  0  0  0  0  0
   33.9640   85.1350   72.7210 H   0  0  0  0  0  0  0  0  0  0  0  0
   34.9480   86.4210   73.4330 H   0  0  0  0  0  0  0  0  0  0  0  0
   33.0950   87.4150   74.4830 H   0  0  0  0  0  0  0  0  0  0  0  0
   31.9310   86.5750   73.4300 H   0  0  0  0  0  0  0  0  0  0  0  0
   32.5380   84.5300   74.4490 H   0  0  0  0  0  0  0  0  0  0  0  0
   34.8560   84.9610   74.8170 H   0  0  0  0  0  0  0  0  0  0  0  0
   34.3880   86.0970   76.1040 H   0  0  0  0  0  0  0  0  0  0  0  0
   35.0050   83.9060   77.0500 H   0  0  0  0  0  0  0  0  0  0  0  0
   33.7750   83.1140   76.0400 H   0  0  0  0  0  0  0  0  0  0  0  0
   32.8970   83.4600   78.3020 H   0  0  0  0  0  0  0  0  0  0  0  0
   33.2670   85.1990   78.2010 H   0  0  0  0  0  0  0  0  0  0  0  0
   31.3260   83.6530   76.4330 H   0  0  0  0  0  0  0  0  0  0  0  0
   30.8960   84.8280   77.6990 H   0  0  0  0  0  0  0  0  0  0  0  0
   32.0570   86.6130   76.4590 H   0  0  0  0  0  0  0  0  0  0  0  0
   30.8160   85.8520   75.4380 H   0  0  0  0  0  0  0  0  0  0  0  0
   37.8450   88.5050   65.3790 H   0  0  0  0  0  0  0  0  0  0  0  0
   35.4050   86.0060   65.7700 H   0  0  0  0  0  0  0  0  0  0  0  0
   39.2220   85.9760   66.1890 H   0  0  0  0  0  0  0  0  0  0  0  0
   31.0490   85.6060   70.3420 H   0  0  0  0  0  0  0  0  0  0  0  0
   32.5230   84.7720   70.8900 H   0  0  0  0  0  0  0  0  0  0  0  0
   32.5170   85.6390   69.3360 H   0  0  0  0  0  0  0  0  0  0  0  0
 11 10  1  0
 11 12  1  0
 11 13  1  0
 11 14  1  0
  4 15  1  1
  4  2  1  0
  4  5  1  0
  4  7  1  0
 15 16  1  0
 15 33  1  0
 15 34  1  0
 16 17  1  0
 16 35  1  0
 16 36  1  0
 22 17  1  0
 22 21  1  0
 22 46  1  0
 22 47  1  0
 21 20  1  0
 21 44  1  0
 21 45  1  0
 20 19  1  0
 20 42  1  0
 20 43  1  0
 19 18  1  0
 19 40  1  0
 19 41  1  0
 18 17  1  0
 18 38  1  0
 18 39  1  0
  6  5  1  0
  6 51  1  0
  6 52  1  0
  6 53  1  0
  7  8  1  0
  7 25  1  0
  7 26  1  0
  8  9  1  0
  8 27  1  0
  8 28  1  0
  9 10  1  0
  9 29  1  0
  9 30  1  0
 10 31  1  0
 10 32  1  0
  2  1  2  0
  2  3  1  0
 17 37  1  0
 50 14  1  0
 48 13  1  0
 49 12  1  0
  5 23  1  0
 24  5  1  0
M  CHG  4   3  -1   5   1  11  -1  17   1
M  END
